<?xml version="1.0" encoding="UTF-8"?>

<!-- generated on 02/16/21 18:14:18 by Eclipse SUMO duarouter Version 1.7.0
<configuration xmlns:xsi="http://www.w3.org/2001/XMLSchema-instance" xsi:noNamespaceSchemaLocation="http://sumo.dlr.de/xsd/duarouterConfiguration.xsd">

    <input>
        <net-file value="C:\Users\Dell\Sumo\2021-02-16-18-14-10\osm.net.xml"/>
        <route-files value="C:\Users\Dell\Sumo\2021-02-16-18-14-10\osm.passenger.trips.xml"/>
    </input>

    <output>
        <output-file value="C:\Users\Dell\Sumo\2021-02-16-18-14-10\osm.passenger.trips.xml.tmp"/>
        <write-trips value="true"/>
    </output>

    <time>
        <begin value="0"/>
        <end value="3600"/>
    </time>

    <report>
        <no-warnings value="true"/>
        <ignore-errors value="true"/>
        <no-step-log value="true"/>
    </report>

</configuration>
-->

<routes xmlns:xsi="http://www.w3.org/2001/XMLSchema-instance" xsi:noNamespaceSchemaLocation="http://sumo.dlr.de/xsd/routes_file.xsd">
    <vType id="veh_passenger" vClass="passenger"/>
    <trip id="veh0" type="veh_passenger" depart="0.00" departLane="best" from="-288926324#4" to="-186263433#1"/>
    <trip id="veh3" type="veh_passenger" depart="8.59" departLane="best" from="-803758026#0" to="-133755126#0"/>
    <trip id="veh4" type="veh_passenger" depart="11.45" departLane="best" from="-186262687#0" to="158486424#3"/>
    <trip id="veh5" type="veh_passenger" depart="14.31" departLane="best" from="-133755118#3" to="-186254736#5"/>
    <trip id="veh6" type="veh_passenger" depart="17.17" departLane="best" from="186258462#1" to="171867126#0"/>
    <trip id="veh7" type="veh_passenger" depart="20.03" departLane="best" from="-186262687#2" to="171870084#3"/>
    <trip id="veh8" type="veh_passenger" depart="22.89" departLane="best" from="374529120#3" to="-122612374#2"/>
    <trip id="veh9" type="veh_passenger" depart="25.76" departLane="best" from="374529120#2" to="246989092#1"/>
    <trip id="veh10" type="veh_passenger" depart="28.62" departLane="best" from="-706318005" to="-171870084#2"/>
    <trip id="veh11" type="veh_passenger" depart="31.48" departLane="best" from="800669886" to="-706318004#0"/>
    <trip id="veh12" type="veh_passenger" depart="34.34" departLane="best" from="-171865797#11" to="-171865797#4"/>
    <trip id="veh13" type="veh_passenger" depart="37.20" departLane="best" from="374533524#2" to="171902837"/>
    <trip id="veh14" type="veh_passenger" depart="40.07" departLane="best" from="374529120#2" to="306475942#2"/>
    <trip id="veh15" type="veh_passenger" depart="42.93" departLane="best" from="171865797#5" to="803758026#0"/>
    <trip id="veh16" type="veh_passenger" depart="45.79" departLane="best" from="-800384388" to="171867129"/>
    <trip id="veh17" type="veh_passenger" depart="48.65" departLane="best" from="374533524#6" to="171867138#1"/>
    <trip id="veh18" type="veh_passenger" depart="51.51" departLane="best" from="286438371#1" to="-133755126#7"/>
    <trip id="veh19" type="veh_passenger" depart="54.38" departLane="best" from="-186263438#1" to="-306475941#2"/>
    <trip id="veh20" type="veh_passenger" depart="57.24" departLane="best" from="-171865792#2" to="-236471188#1"/>
    <trip id="veh21" type="veh_passenger" depart="60.10" departLane="best" from="-171865797#7" to="-290520226"/>
    <trip id="veh22" type="veh_passenger" depart="62.96" departLane="best" from="186258449" to="-715685826#1"/>
    <trip id="veh23" type="veh_passenger" depart="65.82" departLane="best" from="-800384380" to="-186258455#1"/>
    <trip id="veh24" type="veh_passenger" depart="68.68" departLane="best" from="-286438371#1" to="800610496"/>
    <trip id="veh25" type="veh_passenger" depart="71.55" departLane="best" from="186258462#0" to="171902839#2"/>
    <trip id="veh26" type="veh_passenger" depart="74.41" departLane="best" from="-171902831#2" to="306475942#1"/>
    <trip id="veh27" type="veh_passenger" depart="77.27" departLane="best" from="-171870086#1" to="-800384388"/>
    <trip id="veh29" type="veh_passenger" depart="82.99" departLane="best" from="171867130#2" to="246982749"/>
    <trip id="veh30" type="veh_passenger" depart="85.86" departLane="best" from="374533523#1" to="374529112#3"/>
    <trip id="veh31" type="veh_passenger" depart="88.72" departLane="best" from="-186276679#0" to="-133755126#11"/>
    <trip id="veh32" type="veh_passenger" depart="91.58" departLane="best" from="-373896382#0" to="-286438372"/>
    <trip id="veh33" type="veh_passenger" depart="94.44" departLane="best" from="-186258455#2" to="800610509#0"/>
    <trip id="veh34" type="veh_passenger" depart="97.30" departLane="best" from="374533525#4" to="-306475951"/>
    <trip id="veh35" type="veh_passenger" depart="100.16" departLane="best" from="186263433#0" to="-800610509#2"/>
    <trip id="veh36" type="veh_passenger" depart="103.03" departLane="best" from="800384377" to="133755118#0"/>
    <trip id="veh37" type="veh_passenger" depart="105.89" departLane="best" from="171867131#1" to="-246989098#0"/>
    <trip id="veh38" type="veh_passenger" depart="108.75" departLane="best" from="171870082" to="706734274#1"/>
    <trip id="veh39" type="veh_passenger" depart="111.61" departLane="best" from="809425538" to="171865779"/>
    <trip id="veh40" type="veh_passenger" depart="114.47" departLane="best" from="-171865797#10" to="-133755126#8"/>
    <trip id="veh41" type="veh_passenger" depart="117.34" departLane="best" from="-171867127#1" to="186254736#1"/>
    <trip id="veh42" type="veh_passenger" depart="120.20" departLane="best" from="374529118#5" to="-803758026#1"/>
    <trip id="veh43" type="veh_passenger" depart="123.06" departLane="best" from="-158486424#1" to="-800610495#0"/>
    <trip id="veh45" type="veh_passenger" depart="128.78" departLane="best" from="803758023" to="374533524#6"/>
    <trip id="veh46" type="veh_passenger" depart="131.65" departLane="best" from="-133637883#0" to="306475940#1"/>
    <trip id="veh47" type="veh_passenger" depart="134.51" departLane="best" from="245441809#1" to="171865797#5"/>
    <trip id="veh48" type="veh_passenger" depart="137.37" departLane="best" from="-286438371#1" to="186258455#0"/>
    <trip id="veh49" type="veh_passenger" depart="140.23" departLane="best" from="-171867128" to="122612374#0"/>
    <trip id="veh50" type="veh_passenger" depart="143.09" departLane="best" from="133637884" to="800669875"/>
    <trip id="veh51" type="veh_passenger" depart="145.95" departLane="best" from="374533525#4" to="-286437949"/>
    <trip id="veh52" type="veh_passenger" depart="148.82" departLane="best" from="158486424#0" to="-171902839#3"/>
    <trip id="veh53" type="veh_passenger" depart="151.68" departLane="best" from="715685826#1" to="374533525#2"/>
    <trip id="veh55" type="veh_passenger" depart="157.40" departLane="best" from="171902839#2" to="-171870084#0"/>
    <trip id="veh56" type="veh_passenger" depart="160.26" departLane="best" from="373896382#7" to="171865797#7"/>
    <trip id="veh57" type="veh_passenger" depart="163.13" departLane="best" from="374529118#1" to="171865797#11"/>
    <trip id="veh58" type="veh_passenger" depart="165.99" departLane="best" from="-122612356#0" to="-373896382#6"/>
    <trip id="veh59" type="veh_passenger" depart="168.85" departLane="best" from="-133637887#0" to="800384388"/>
    <trip id="veh60" type="veh_passenger" depart="171.71" departLane="best" from="374533525#5" to="374532416#2"/>
    <trip id="veh61" type="veh_passenger" depart="174.57" departLane="best" from="-306475946#3" to="-135530186#5"/>
    <trip id="veh62" type="veh_passenger" depart="177.44" departLane="best" from="374533525#5" to="800610509#3"/>
    <trip id="veh63" type="veh_passenger" depart="180.30" departLane="best" from="-171865792#8" to="133755126#8"/>
    <trip id="veh64" type="veh_passenger" depart="183.16" departLane="best" from="-158486424#5" to="373896382#6"/>
    <trip id="veh65" type="veh_passenger" depart="186.02" departLane="best" from="133755126#14" to="171867128"/>
    <trip id="veh66" type="veh_passenger" depart="188.88" departLane="best" from="-286438371#0" to="374533525#3"/>
    <trip id="veh67" type="veh_passenger" depart="191.74" departLane="best" from="-803758026#1" to="-186258456"/>
    <trip id="veh68" type="veh_passenger" depart="194.61" departLane="best" from="171865797#7" to="306475942#2"/>
    <trip id="veh69" type="veh_passenger" depart="197.47" departLane="best" from="-186254736#6" to="-306475949"/>
    <trip id="veh71" type="veh_passenger" depart="203.19" departLane="best" from="122612374#2" to="171865792#10"/>
    <trip id="veh72" type="veh_passenger" depart="206.05" departLane="best" from="-171867131#0" to="-186263433#2"/>
    <trip id="veh73" type="veh_passenger" depart="208.92" departLane="best" from="-706318004#1" to="171870084#2"/>
    <trip id="veh74" type="veh_passenger" depart="211.78" departLane="best" from="-186276679#1" to="-186262687#2"/>
    <trip id="veh75" type="veh_passenger" depart="214.64" departLane="best" from="-171865779" to="186254736#5"/>
    <trip id="veh76" type="veh_passenger" depart="217.50" departLane="best" from="-186276679#0" to="706734276#2"/>
    <trip id="veh77" type="veh_passenger" depart="220.36" departLane="best" from="374533524#6" to="-171865779"/>
    <trip id="veh78" type="veh_passenger" depart="223.22" departLane="best" from="-236471195#0" to="236471193#0"/>
    <trip id="veh79" type="veh_passenger" depart="226.09" departLane="best" from="-186258459" to="-171867136#1"/>
    <trip id="veh80" type="veh_passenger" depart="228.95" departLane="best" from="133755126#12" to="374529118#3"/>
    <trip id="veh81" type="veh_passenger" depart="231.81" departLane="best" from="374529120#2" to="-186254733#1"/>
    <trip id="veh82" type="veh_passenger" depart="234.67" departLane="best" from="-171865797#4" to="122612356#0"/>
    <trip id="veh83" type="veh_passenger" depart="237.53" departLane="best" from="-803758027" to="133755126#0"/>
    <trip id="veh85" type="veh_passenger" depart="243.26" departLane="best" departSpeed="max" from="804207591#0" to="-171865797#5"/>
    <trip id="veh86" type="veh_passenger" depart="246.12" departLane="best" from="-800669875" to="-706318004#1"/>
    <trip id="veh87" type="veh_passenger" depart="248.98" departLane="best" from="374533524#6" to="-245441809#1"/>
    <trip id="veh88" type="veh_passenger" depart="251.84" departLane="best" from="-186254733#1" to="133637883#0"/>
    <trip id="veh89" type="veh_passenger" depart="254.71" departLane="best" from="-803758026#0" to="-290520226"/>
    <trip id="veh90" type="veh_passenger" depart="257.57" departLane="best" from="-246982749" to="800384382"/>
    <trip id="veh91" type="veh_passenger" depart="260.43" departLane="best" from="133055393#0" to="374533524#6"/>
    <trip id="veh92" type="veh_passenger" depart="263.29" departLane="best" from="171867128" to="-135530186#0"/>
    <trip id="veh93" type="veh_passenger" depart="266.15" departLane="best" from="817230302" to="374532416#4"/>
    <trip id="veh94" type="veh_passenger" depart="269.01" departLane="best" from="803758022" to="800384387#0"/>
    <trip id="veh95" type="veh_passenger" depart="271.88" departLane="best" from="374533524#2" to="-171902829#0"/>
    <trip id="veh96" type="veh_passenger" depart="274.74" departLane="best" from="-800669864" to="-135530186#6"/>
    <trip id="veh97" type="veh_passenger" depart="277.60" departLane="best" from="-800384388" to="804217356#4"/>
    <trip id="veh98" type="veh_passenger" depart="280.46" departLane="best" from="-286438371#0" to="374529118#3"/>
    <trip id="veh99" type="veh_passenger" depart="283.32" departLane="best" from="133637887#0" to="-803758026#1"/>
    <trip id="veh100" type="veh_passenger" depart="286.19" departLane="best" from="800669886" to="804217356#9"/>
    <trip id="veh101" type="veh_passenger" depart="289.05" departLane="best" from="171867130#2" to="290646812#1"/>
    <trip id="veh102" type="veh_passenger" depart="291.91" departLane="best" from="-171870084#2" to="-306475943#1"/>
    <trip id="veh103" type="veh_passenger" depart="294.77" departLane="best" from="803758022" to="171870075#0"/>
    <trip id="veh104" type="veh_passenger" depart="297.63" departLane="best" from="171865800" to="306475949"/>
    <trip id="veh105" type="veh_passenger" depart="300.49" departLane="best" from="-135530186#5" to="171870082"/>
    <trip id="veh106" type="veh_passenger" depart="303.36" departLane="best" from="158486424#1" to="374533524#3"/>
    <trip id="veh107" type="veh_passenger" depart="306.22" departLane="best" from="-171870084#3" to="800715313"/>
    <trip id="veh108" type="veh_passenger" depart="309.08" departLane="best" from="-171865792#2" to="-173655926#1"/>
    <trip id="veh109" type="veh_passenger" depart="311.94" departLane="best" from="171870086#1" to="236471196"/>
    <trip id="veh110" type="veh_passenger" depart="314.80" departLane="best" from="-236471193#0" to="-171867130#3"/>
    <trip id="veh111" type="veh_passenger" depart="317.67" departLane="best" from="706318010" to="-245441027#2"/>
    <trip id="veh112" type="veh_passenger" depart="320.53" departLane="best" from="171870086#0" to="186250796"/>
    <trip id="veh113" type="veh_passenger" depart="323.39" departLane="best" from="171865792#7" to="800610495#1"/>
    <trip id="veh114" type="veh_passenger" depart="326.25" departLane="best" from="-186258452" to="288926324#5"/>
    <trip id="veh115" type="veh_passenger" depart="329.11" departLane="best" from="-236471195#0" to="-800610509#2"/>
    <trip id="veh116" type="veh_passenger" depart="331.98" departLane="best" from="236471195#0" to="-306475944#0"/>
    <trip id="veh117" type="veh_passenger" depart="334.84" departLane="best" from="-373896382#0" to="306475951"/>
    <trip id="veh118" type="veh_passenger" depart="337.70" departLane="best" from="-171865787" to="133755118#0"/>
    <trip id="veh119" type="veh_passenger" depart="340.56" departLane="best" from="809425538" to="804217356#9"/>
    <trip id="veh120" type="veh_passenger" depart="343.42" departLane="best" from="-171865787" to="-186258456"/>
    <trip id="veh121" type="veh_passenger" depart="346.28" departLane="best" from="-286438371#0" to="800610495#0"/>
    <trip id="veh122" type="veh_passenger" depart="349.15" departLane="best" from="578203893" to="374533525#5"/>
    <trip id="veh123" type="veh_passenger" depart="352.01" departLane="best" from="-800384380" to="-171870085#0"/>
    <trip id="veh124" type="veh_passenger" depart="354.87" departLane="best" from="171902839#4" to="804217356#6"/>
    <trip id="veh125" type="veh_passenger" depart="357.73" departLane="best" from="186262687#3" to="-122612374#3"/>
    <trip id="veh126" type="veh_passenger" depart="360.59" departLane="best" from="374529122#1" to="-306475944#0"/>
    <trip id="veh127" type="veh_passenger" depart="363.46" departLane="best" from="186276679#0" to="800610498#1"/>
    <trip id="veh128" type="veh_passenger" depart="366.32" departLane="best" from="-171867136#2" to="-171867130#0"/>
    <trip id="veh129" type="veh_passenger" depart="369.18" departLane="best" from="-171867126#1" to="171867130#0"/>
    <trip id="veh130" type="veh_passenger" depart="372.04" departLane="best" from="-288926324#2" to="171902837"/>
    <trip id="veh131" type="veh_passenger" depart="374.90" departLane="best" from="290646812#0" to="-186258449"/>
    <trip id="veh132" type="veh_passenger" depart="377.77" departLane="best" from="186254736#7" to="-286437949"/>
    <trip id="veh133" type="veh_passenger" depart="380.63" departLane="best" from="135530186#0" to="706734276#1"/>
    <trip id="veh134" type="veh_passenger" depart="383.49" departLane="best" from="374533524#1" to="-171865797#11"/>
    <trip id="veh135" type="veh_passenger" depart="386.35" departLane="best" from="-803758027" to="-288926324#5"/>
    <trip id="veh136" type="veh_passenger" depart="389.21" departLane="best" from="-122612374#0" to="374529112#2"/>
    <trip id="veh137" type="veh_passenger" depart="392.07" departLane="best" from="186258452" to="-246989098#0"/>
    <trip id="veh138" type="veh_passenger" depart="394.94" departLane="best" from="306475946#0" to="171867129"/>
    <trip id="veh140" type="veh_passenger" depart="400.66" departLane="best" from="374532416#3" to="171870081#0"/>
    <trip id="veh141" type="veh_passenger" depart="403.52" departLane="best" from="-171870081#0" to="-171867133"/>
    <trip id="veh142" type="veh_passenger" depart="406.38" departLane="best" from="-306475946#4" to="706734275#0"/>
    <trip id="veh143" type="veh_passenger" depart="409.25" departLane="best" from="374529118#7" to="374533524#6"/>
    <trip id="veh144" type="veh_passenger" depart="412.11" departLane="best" from="706734275#0" to="-186258455#1"/>
    <trip id="veh145" type="veh_passenger" depart="414.97" departLane="best" from="-246982749" to="-171865797#8"/>
    <trip id="veh146" type="veh_passenger" depart="417.83" departLane="best" from="374529118#1" to="646246743"/>
    <trip id="veh147" type="veh_passenger" depart="420.69" departLane="best" from="-800669886" to="186254733#0"/>
    <trip id="veh148" type="veh_passenger" depart="423.55" departLane="best" from="-171870084#1" to="800384389"/>
    <trip id="veh149" type="veh_passenger" depart="426.42" departLane="best" from="374533525#0" to="803758027"/>
    <trip id="veh150" type="veh_passenger" depart="429.28" departLane="best" from="374529120#3" to="578203893"/>
    <trip id="veh151" type="veh_passenger" depart="432.14" departLane="best" from="-133755118#2" to="306475944#0"/>
    <trip id="veh152" type="veh_passenger" depart="435.00" departLane="best" from="-374530997#1" to="800384389"/>
    <trip id="veh153" type="veh_passenger" depart="437.86" departLane="best" from="374529120#1" to="374533525#0"/>
    <trip id="veh154" type="veh_passenger" depart="440.73" departLane="best" from="374529118#4" to="-171867126#1"/>
    <trip id="veh155" type="veh_passenger" depart="443.59" departLane="best" from="374533525#3" to="374533524#5"/>
    <trip id="veh156" type="veh_passenger" depart="446.45" departLane="best" from="-186263433#1" to="374529122#0"/>
    <trip id="veh157" type="veh_passenger" depart="449.31" departLane="best" from="133755118#1" to="-306475946#2"/>
    <trip id="veh158" type="veh_passenger" depart="452.17" departLane="best" from="374529118#6" to="-186263438#1"/>
    <trip id="veh159" type="veh_passenger" depart="455.04" departLane="best" from="-374529123#0" to="374533525#0"/>
    <trip id="veh160" type="veh_passenger" depart="457.90" departLane="best" from="803758020" to="-290520226"/>
    <trip id="veh161" type="veh_passenger" depart="460.76" departLane="best" from="186258455#1" to="-800669862"/>
    <trip id="veh162" type="veh_passenger" depart="463.62" departLane="best" departSpeed="max" from="804207591#0" to="171865797#5"/>
    <trip id="veh163" type="veh_passenger" depart="466.48" departLane="best" from="800610498#1" to="-171867130#0"/>
    <trip id="veh164" type="veh_passenger" depart="469.34" departLane="best" from="803758023" to="-171902839#3"/>
    <trip id="veh165" type="veh_passenger" depart="472.21" departLane="best" from="-171867127#0" to="122612374#0"/>
    <trip id="veh167" type="veh_passenger" depart="477.93" departLane="best" from="171902839#0" to="171865787"/>
    <trip id="veh168" type="veh_passenger" depart="480.79" departLane="best" from="-800610496" to="171867138#1"/>
    <trip id="veh169" type="veh_passenger" depart="483.65" departLane="best" from="-246989083#2" to="288926324#1"/>
    <trip id="veh170" type="veh_passenger" depart="486.52" departLane="best" from="-122612356#1" to="800384387#0"/>
    <trip id="veh171" type="veh_passenger" depart="489.38" departLane="best" from="171865797#6" to="306475940#0"/>
    <trip id="veh172" type="veh_passenger" depart="492.24" departLane="best" from="306475946#2" to="236471193#1"/>
    <trip id="veh173" type="veh_passenger" depart="495.10" departLane="best" from="-715685826#1" to="-158486424#5"/>
    <trip id="veh174" type="veh_passenger" depart="497.96" departLane="best" from="186276679#1" to="-374529123#1"/>
    <trip id="veh175" type="veh_passenger" depart="500.82" departLane="best" from="-306475951" to="374533524#2"/>
    <trip id="veh176" type="veh_passenger" depart="503.69" departLane="best" from="306475940#0" to="-306475944#1"/>
    <trip id="veh177" type="veh_passenger" depart="506.55" departLane="best" from="-306475946#4" to="-800669888"/>
    <trip id="veh178" type="veh_passenger" depart="509.41" departLane="best" from="-800669864" to="-306475943#0"/>
    <trip id="veh179" type="veh_passenger" depart="512.27" departLane="best" from="-171867133" to="-803758026#0"/>
    <trip id="veh180" type="veh_passenger" depart="515.13" departLane="best" from="800610499" to="245441027#1"/>
    <trip id="veh181" type="veh_passenger" depart="518.00" departLane="best" from="706734275#3" to="171902841#1"/>
    <trip id="veh183" type="veh_passenger" depart="523.72" departLane="best" from="-122612356#0" to="-306475941#1"/>
    <trip id="veh184" type="veh_passenger" depart="526.58" departLane="best" from="-817230302" to="171870075#1"/>
    <trip id="veh185" type="veh_passenger" depart="529.44" departLane="best" from="186263433#0" to="133755118#4"/>
    <trip id="veh186" type="veh_passenger" depart="532.31" departLane="best" from="133055393#0" to="-186258459"/>
    <trip id="veh187" type="veh_passenger" depart="535.17" departLane="best" from="133755126#13" to="706734275#2"/>
    <trip id="veh188" type="veh_passenger" depart="538.03" departLane="best" from="374529118#7" to="-171902831#2"/>
    <trip id="veh189" type="veh_passenger" depart="540.89" departLane="best" from="186254736#6" to="-646246743"/>
    <trip id="veh190" type="veh_passenger" depart="543.75" departLane="best" from="374529122#1" to="306475951"/>
    <trip id="veh191" type="veh_passenger" depart="546.61" departLane="best" from="236471195#1" to="-186263433#2"/>
    <trip id="veh192" type="veh_passenger" depart="549.48" departLane="best" from="-186254736#5" to="-133755118#2"/>
    <trip id="veh193" type="veh_passenger" depart="552.34" departLane="best" from="-245441027#2" to="133755126#14"/>
    <trip id="veh194" type="veh_passenger" depart="555.20" departLane="best" from="374533524#2" to="-171865787"/>
    <trip id="veh195" type="veh_passenger" depart="558.06" departLane="best" from="-803758020" to="186254736#4"/>
    <trip id="veh196" type="veh_passenger" depart="560.92" departLane="best" from="-186254736#1" to="246989092#0"/>
    <trip id="veh197" type="veh_passenger" depart="563.79" departLane="best" from="135530186#4" to="-245441027#1"/>
    <trip id="veh198" type="veh_passenger" depart="566.65" departLane="best" from="306475951" to="374529112#1"/>
    <trip id="veh199" type="veh_passenger" depart="569.51" departLane="best" from="-171867126#0" to="-804207581"/>
    <trip id="veh200" type="veh_passenger" depart="572.37" departLane="best" from="-171902839#2" to="800669888"/>
    <trip id="veh201" type="veh_passenger" depart="575.23" departLane="best" from="171865792#10" to="-135530186#0"/>
    <trip id="veh202" type="veh_passenger" depart="578.10" departLane="best" from="-245441809#1" to="374533524#2"/>
    <trip id="veh203" type="veh_passenger" depart="580.96" departLane="best" from="236471188#1" to="804217356#6"/>
    <trip id="veh204" type="veh_passenger" depart="583.82" departLane="best" from="171870086#1" to="800610512"/>
    <trip id="veh205" type="veh_passenger" depart="586.68" departLane="best" from="706318011" to="171902841#0"/>
    <trip id="veh207" type="veh_passenger" depart="592.40" departLane="best" from="374532416#2" to="171867127#0"/>
    <trip id="veh208" type="veh_passenger" depart="595.27" departLane="best" from="706734274#1" to="306475946#3"/>
    <trip id="veh209" type="veh_passenger" depart="598.13" departLane="best" from="133755126#14" to="-246989092#0"/>
    <trip id="veh210" type="veh_passenger" depart="600.99" departLane="best" from="-245441809#0" to="186258452"/>
    <trip id="veh211" type="veh_passenger" depart="603.85" departLane="best" from="374529112#0" to="171865792#5"/>
    <trip id="veh212" type="veh_passenger" depart="606.71" departLane="best" from="186254736#1" to="-288926324#3"/>
    <trip id="veh213" type="veh_passenger" depart="609.58" departLane="best" from="-171865792#0" to="-306475941#0"/>
    <trip id="veh214" type="veh_passenger" depart="612.44" departLane="best" from="-288926324#1" to="-373896382#2"/>
    <trip id="veh215" type="veh_passenger" depart="615.30" departLane="best" from="171865797#7" to="-171867137#0"/>
    <trip id="veh216" type="veh_passenger" depart="618.16" departLane="best" from="-236471188#0" to="246989090"/>
    <trip id="veh217" type="veh_passenger" depart="621.02" departLane="best" from="286438372" to="-158486424#1"/>
    <trip id="veh218" type="veh_passenger" depart="623.88" departLane="best" from="-800669888" to="171865800"/>
    <trip id="veh219" type="veh_passenger" depart="626.75" departLane="best" from="-803758020" to="-186258453"/>
    <trip id="veh220" type="veh_passenger" depart="629.61" departLane="best" from="-803758024" to="706734276#1"/>
    <trip id="veh221" type="veh_passenger" depart="632.47" departLane="best" from="171870081#1" to="246989092#0"/>
    <trip id="veh222" type="veh_passenger" depart="635.33" departLane="best" from="374533524#5" to="374529112#0"/>
    <trip id="veh223" type="veh_passenger" depart="638.19" departLane="best" from="-800384389" to="-122612374#1"/>
    <trip id="veh224" type="veh_passenger" depart="641.06" departLane="best" from="-706734275#1" to="373896382#0"/>
    <trip id="veh225" type="veh_passenger" depart="643.92" departLane="best" from="374533524#4" to="800669864"/>
    <trip id="veh226" type="veh_passenger" depart="646.78" departLane="best" from="-803758024" to="306475948"/>
    <trip id="veh227" type="veh_passenger" depart="649.64" departLane="best" from="171867126#1" to="171902831#2"/>
    <trip id="veh228" type="veh_passenger" depart="652.50" departLane="best" from="122612374#1" to="-133755126#0"/>
    <trip id="veh229" type="veh_passenger" depart="655.37" departLane="best" from="-646246743" to="245441027#2"/>
    <trip id="veh230" type="veh_passenger" depart="658.23" departLane="best" from="-800669878" to="-171870086#2"/>
    <trip id="veh231" type="veh_passenger" depart="661.09" departLane="best" from="133755126#0" to="-171867135#0"/>
    <trip id="veh232" type="veh_passenger" depart="663.95" departLane="best" from="-800610509#1" to="171867132"/>
    <trip id="veh233" type="veh_passenger" depart="666.81" departLane="best" from="-133755118#4" to="186258455#2"/>
    <trip id="veh234" type="veh_passenger" depart="669.67" departLane="best" from="-171867136#3" to="133755118#2"/>
    <trip id="veh235" type="veh_passenger" depart="672.54" departLane="best" from="-135530186#0" to="-800384388"/>
    <trip id="veh236" type="veh_passenger" depart="675.40" departLane="best" from="-186258455#2" to="-373896382#8"/>
    <trip id="veh237" type="veh_passenger" depart="678.26" departLane="best" from="373896382#6" to="-800384388"/>
    <trip id="veh238" type="veh_passenger" depart="681.12" departLane="best" from="306475951" to="374532416#3"/>
    <trip id="veh239" type="veh_passenger" depart="683.98" departLane="best" from="-133637887#0" to="171865797#7"/>
    <trip id="veh240" type="veh_passenger" depart="686.85" departLane="best" from="186258462#1" to="374529118#2"/>
    <trip id="veh241" type="veh_passenger" depart="689.71" departLane="best" from="186262687#2" to="373896382#1"/>
    <trip id="veh242" type="veh_passenger" depart="692.57" departLane="best" from="800610512" to="-186254736#5"/>
    <trip id="veh243" type="veh_passenger" depart="695.43" departLane="best" from="-171867133" to="236471193#0"/>
    <trip id="veh244" type="veh_passenger" depart="698.29" departLane="best" from="171867132" to="-186262687#0"/>
    <trip id="veh245" type="veh_passenger" depart="701.15" departLane="best" from="246989098#0" to="374529112#0"/>
    <trip id="veh246" type="veh_passenger" depart="704.02" departLane="best" from="306475949" to="-171867130#0"/>
    <trip id="veh247" type="veh_passenger" depart="706.88" departLane="best" from="374529122#1" to="803758019"/>
    <trip id="veh248" type="veh_passenger" depart="709.74" departLane="best" from="-171867126#1" to="-133755118#3"/>
    <trip id="veh249" type="veh_passenger" depart="712.60" departLane="best" from="-306475949" to="245441027#1"/>
    <trip id="veh250" type="veh_passenger" depart="715.46" departLane="best" from="800669888" to="-800610510"/>
    <trip id="veh251" type="veh_passenger" depart="718.33" departLane="best" from="288926324#5" to="-171865791"/>
    <trip id="veh252" type="veh_passenger" depart="721.19" departLane="best" from="246989083#3" to="186254736#1"/>
    <trip id="veh253" type="veh_passenger" depart="724.05" departLane="best" from="-171865797#7" to="374529112#2"/>
    <trip id="veh254" type="veh_passenger" depart="726.91" departLane="best" from="374533524#3" to="171902829#1"/>
    <trip id="veh255" type="veh_passenger" depart="729.77" departLane="best" from="-171867131#0" to="804217356#3"/>
    <trip id="veh256" type="veh_passenger" depart="732.64" departLane="best" from="374529118#2" to="-706734274#0"/>
    <trip id="veh257" type="veh_passenger" depart="735.50" departLane="best" from="-809425538" to="-800384380"/>
    <trip id="veh258" type="veh_passenger" depart="738.36" departLane="best" from="158486424#3" to="-706318010"/>
    <trip id="veh259" type="veh_passenger" depart="741.22" departLane="best" from="374533524#2" to="374529123#1"/>
    <trip id="veh260" type="veh_passenger" depart="744.08" departLane="best" from="-171867126#0" to="800715313"/>