<?xml version="1.0" encoding="UTF-8"?>

<!-- generated on 02/16/21 18:20:17 by Eclipse SUMO netedit Version 1.7.0
<configuration xmlns:xsi="http://www.w3.org/2001/XMLSchema-instance" xsi:noNamespaceSchemaLocation="http://sumo.dlr.de/xsd/netconvertConfiguration.xsd">

    <input>
        <sumo-net-file value="C:\Users\Dell\Sumo\2021-02-16-18-14-10\osm.net.xml"/>
    </input>

    <output>
        <output-file value="C:\Users\Dell\Sumo\2021-02-16-18-14-10\osm.net.xml"/>
        <output.street-names value="true"/>
    </output>

    <processing>
        <geometry.min-radius.fix.railways value="false"/>
        <geometry.max-grade.fix value="false"/>
        <offset.disable-normalization value="true"/>
        <lefthand value="true"/>
    </processing>

    <junctions>
        <no-turnarounds value="true"/>
        <junctions.corner-detail value="5"/>
        <junctions.limit-turn-speed value="5.5"/>
        <rectangular-lane-cut value="false"/>
    </junctions>

    <pedestrian>
        <walkingareas value="false"/>
    </pedestrian>

    <report>
        <aggregate-warnings value="5"/>
    </report>

</configuration>
-->

<net version="1.6" junctionCornerDetail="5" lefthand="true" limitTurnSpeed="5.50" xmlns:xsi="http://www.w3.org/2001/XMLSchema-instance" xsi:noNamespaceSchemaLocation="http://sumo.dlr.de/xsd/net_file.xsd">

    <location netOffset="-475171.97,-1474039.92" convBoundary="-1.17,0.00,11669.14,3506.48" origBoundary="74.770726,13.333618,74.878474,13.365388" projParameter="+proj=utm +zone=43 +ellps=WGS84 +datum=WGS84 +units=m +no_defs"/>

    <type id="highway.bridleway" priority="1" numLanes="1" speed="2.78" allow="pedestrian" oneway="1" width="2.00"/>
    <type id="highway.bus_guideway" priority="1" numLanes="1" speed="27.78" allow="bus" oneway="1"/>
    <type id="highway.cycleway" priority="1" numLanes="1" speed="8.33" allow="bicycle" oneway="0" width="1.00"/>
    <type id="highway.footway" priority="1" numLanes="1" speed="2.78" allow="pedestrian" oneway="1" width="2.00"/>
    <type id="highway.ford" priority="1" numLanes="1" speed="2.78" allow="army" oneway="0"/>
    <type id="highway.living_street" priority="2" numLanes="1" speed="2.78" disallow="tram rail_urban rail rail_electric rail_fast ship" oneway="0"/>
    <type id="highway.motorway" priority="14" numLanes="2" speed="39.44" allow="private emergency authority army vip passenger hov taxi bus coach delivery truck trailer motorcycle evehicle custom1 custom2" oneway="1"/>
    <type id="highway.motorway_link" priority="9" numLanes="1" speed="22.22" allow="private emergency authority army vip passenger hov taxi bus coach delivery truck trailer motorcycle evehicle custom1 custom2" oneway="1"/>
    <type id="highway.path" priority="1" numLanes="1" speed="2.78" allow="pedestrian bicycle" oneway="1" width="2.00"/>
    <type id="highway.pedestrian" priority="1" numLanes="1" speed="2.78" allow="pedestrian" oneway="1" width="2.00"/>
    <type id="highway.primary" priority="12" numLanes="2" speed="27.78" disallow="tram rail_urban rail rail_electric rail_fast ship" oneway="0"/>
    <type id="highway.primary_link" priority="7" numLanes="1" speed="22.22" disallow="tram rail_urban rail rail_electric rail_fast ship" oneway="0"/>
    <type id="highway.raceway" priority="15" numLanes="2" speed="83.33" allow="vip" oneway="0"/>
    <type id="highway.residential" priority="3" numLanes="1" speed="13.89" disallow="tram rail_urban rail rail_electric rail_fast ship" oneway="0"/>
    <type id="highway.secondary" priority="11" numLanes="1" speed="27.78" disallow="tram rail_urban rail rail_electric rail_fast ship" oneway="0"/>
    <type id="highway.secondary_link" priority="6" numLanes="1" speed="22.22" disallow="tram rail_urban rail rail_electric rail_fast ship" oneway="0"/>
    <type id="highway.service" priority="1" numLanes="1" speed="5.56" allow="pedestrian delivery bicycle" oneway="0"/>
    <type id="highway.stairs" priority="1" numLanes="1" speed="1.39" allow="pedestrian" oneway="1" width="2.00"/>
    <type id="highway.step" priority="1" numLanes="1" speed="1.39" allow="pedestrian" oneway="1" width="2.00"/>
    <type id="highway.steps" priority="1" numLanes="1" speed="1.39" allow="pedestrian" oneway="1" width="2.00"/>
    <type id="highway.tertiary" priority="10" numLanes="1" speed="22.22" disallow="tram rail_urban rail rail_electric rail_fast ship" oneway="0"/>
    <type id="highway.tertiary_link" priority="5" numLanes="1" speed="22.22" disallow="tram rail_urban rail rail_electric rail_fast ship" oneway="0"/>
    <type id="highway.track" priority="1" numLanes="1" speed="5.56" allow="pedestrian motorcycle moped bicycle" oneway="0"/>
    <type id="highway.trunk" priority="13" numLanes="2" speed="27.78" disallow="pedestrian bicycle tram rail_urban rail rail_electric rail_fast ship" oneway="0"/>
    <type id="highway.trunk_link" priority="8" numLanes="1" speed="22.22" disallow="pedestrian bicycle tram rail_urban rail rail_electric rail_fast ship" oneway="0"/>
    <type id="highway.unclassified" priority="4" numLanes="1" speed="13.89" disallow="tram rail_urban rail rail_electric rail_fast ship" oneway="0"/>
    <type id="highway.unsurfaced" priority="1" numLanes="1" speed="8.33" disallow="tram rail_urban rail rail_electric rail_fast ship" oneway="0"/>
    <type id="railway.highspeed" priority="21" numLanes="1" speed="69.44" allow="rail_fast" oneway="1"/>
    <type id="railway.light_rail" priority="19" numLanes="1" speed="27.78" allow="rail_urban" oneway="1"/>
    <type id="railway.preserved" priority="16" numLanes="1" speed="27.78" allow="rail" oneway="1"/>
    <type id="railway.rail" priority="20" numLanes="1" speed="44.44" allow="rail" oneway="1"/>
    <type id="railway.subway" priority="18" numLanes="1" speed="27.78" allow="rail_urban" oneway="1"/>
    <type id="railway.tram" priority="17" numLanes="1" speed="13.89" allow="tram" oneway="1"/>

    <edge id=":1369614871_0" function="internal">
        <lane id=":1369614871_0_0" index="0" disallow="tram rail_urban rail rail_electric rail_fast ship" speed="13.89" length="14.93" shape="2354.83,1516.08 2351.21,1515.16 2347.58,1514.32 2343.94,1513.55 2340.26,1512.88"/>
    </edge>
    <edge id=":1369614871_1" function="internal">
        <lane id=":1369614871_1_0" index="0" disallow="tram rail_urban rail rail_electric rail_fast ship" speed="7.68" length="6.21" shape="2354.83,1516.08 2350.61,1515.59 2348.76,1516.23"/>
    </edge>
    <edge id=":1369614871_2" function="internal">
        <lane id=":1369614871_2_0" index="0" disallow="tram rail_urban rail rail_electric rail_fast ship" speed="3.65" length="2.34" shape="2354.83,1516.08 2353.47,1516.55 2352.88,1517.22"/>
    </edge>
    <edge id=":1369614871_9" function="internal">
        <lane id=":1369614871_9_0" index="0" disallow="tram rail_urban rail rail_electric rail_fast ship" speed="7.68" length="8.84" shape="2348.76,1516.23 2347.51,1516.66 2345.56,1519.28 2344.75,1523.46"/>
    </edge>
    <edge id=":1369614871_10" function="internal">
        <lane id=":1369614871_10_0" index="0" disallow="tram rail_urban rail rail_electric rail_fast ship" speed="3.65" length="2.34" shape="2352.88,1517.22 2353.06,1518.10 2354.02,1519.18"/>
    </edge>
    <edge id=":1369614871_3" function="internal">
        <lane id=":1369614871_3_0" index="0" disallow="tram rail_urban rail rail_electric rail_fast ship" speed="6.10" length="9.06" shape="2347.94,1523.62 2348.43,1521.10 2349.61,1519.52 2351.47,1518.88 2354.02,1519.18"/>
    </edge>
    <edge id=":1369614871_4" function="internal">
        <lane id=":1369614871_4_0" index="0" disallow="tram rail_urban rail rail_electric rail_fast ship" speed="8.50" length="14.68" shape="2347.94,1523.62 2347.64,1519.44 2346.25,1516.25 2343.79,1514.07 2340.26,1512.88"/>
    </edge>
    <edge id=":1369614871_5" function="internal">
        <lane id=":1369614871_5_0" index="0" disallow="tram rail_urban rail rail_electric rail_fast ship" speed="3.65" length="4.67" shape="2347.94,1523.62 2347.20,1522.38 2346.42,1521.94 2345.60,1522.30 2344.75,1523.46"/>
    </edge>
    <edge id=":1369614871_6" function="internal">
        <lane id=":1369614871_6_0" index="0" disallow="tram rail_urban rail rail_electric rail_fast ship" speed="7.10" length="9.95" shape="2339.72,1516.04 2342.04,1516.84 2343.65,1518.34 2344.55,1520.55 2344.75,1523.46"/>
    </edge>
    <edge id=":1369614871_7" function="internal">
        <lane id=":1369614871_7_0" index="0" disallow="tram rail_urban rail rail_electric rail_fast ship" speed="13.89" length="14.64" shape="2339.72,1516.04 2343.36,1516.70 2346.91,1517.44 2350.44,1518.26 2354.02,1519.18"/>
    </edge>
    <edge id=":1369614871_8" function="internal">
        <lane id=":1369614871_8_0" index="0" disallow="tram rail_urban rail rail_electric rail_fast ship" speed="3.65" length="2.34" shape="2339.72,1516.04 2341.04,1515.45 2341.57,1514.73"/>
    </edge>
    <edge id=":1369614871_11" function="internal">
        <lane id=":1369614871_11_0" index="0" disallow="tram rail_urban rail rail_electric rail_fast ship" speed="3.65" length="2.34" shape="2341.57,1514.73 2341.31,1513.87 2340.26,1512.88"/>
    </edge>
    <edge id=":1369615162_0" function="internal">
        <lane id=":1369615162_0_0" index="0" disallow="tram rail_urban rail rail_electric rail_fast ship" speed="13.89" length="15.21" shape="2235.83,2127.53 2234.55,2131.08 2232.96,2134.55 2231.22,2137.97 2229.49,2141.34"/>
    </edge>
    <edge id=":1369615162_1" function="internal">
        <lane id=":1369615162_1_0" index="0" disallow="tram rail_urban rail rail_electric rail_fast ship" speed="7.50" length="5.82" shape="2235.83,2127.53 2235.06,2132.29 2235.34,2133.25"/>
    </edge>
    <edge id=":1369615162_2" function="internal">
        <lane id=":1369615162_2_0" index="0" disallow="tram rail_urban rail rail_electric rail_fast ship" speed="3.66" length="2.51" shape="2235.83,2127.53 2236.06,2128.97 2236.63,2129.67 2236.78,2129.67"/>
    </edge>
    <edge id=":1369615162_9" function="internal">
        <lane id=":1369615162_9_0" index="0" disallow="tram rail_urban rail rail_electric rail_fast ship" speed="7.50" length="10.00" shape="2235.34,2133.25 2236.00,2135.56 2238.67,2137.35 2243.05,2137.66"/>
    </edge>
    <edge id=":1369615162_10" function="internal">
        <lane id=":1369615162_10_0" index="0" disallow="tram rail_urban rail rail_electric rail_fast ship" speed="3.66" length="2.21" shape="2236.78,2129.67 2237.54,2129.64 2238.77,2128.87"/>
    </edge>
    <edge id=":1369615162_3" function="internal">
        <lane id=":1369615162_3_0" index="0" disallow="tram rail_urban rail rail_electric rail_fast ship" speed="5.76" length="8.77" shape="2242.78,2134.48 2240.35,2134.30 2238.87,2133.31 2238.34,2131.50 2238.77,2128.87"/>
    </edge>
    <edge id=":1369615162_4" function="internal">
        <lane id=":1369615162_4_0" index="0" disallow="tram rail_urban rail rail_electric rail_fast ship" speed="10.78" length="15.62" shape="2242.78,2134.48 2238.08,2135.22 2234.30,2136.61 2231.44,2138.65 2229.49,2141.34"/>
    </edge>
    <edge id=":1369615162_5" function="internal">
        <lane id=":1369615162_5_0" index="0" disallow="tram rail_urban rail rail_electric rail_fast ship" speed="3.65" length="4.67" shape="2242.78,2134.48 2241.65,2135.37 2241.32,2136.20 2241.78,2136.97 2243.05,2137.66"/>
    </edge>
    <edge id=":1369615162_6" function="internal">
        <lane id=":1369615162_6_0" index="0" disallow="tram rail_urban rail rail_electric rail_fast ship" speed="9.63" length="12.33" shape="2232.36,2142.76 2233.84,2140.79 2236.12,2139.29 2239.19,2138.24 2243.05,2137.66"/>
    </edge>
    <edge id=":1369615162_7" function="internal">
        <lane id=":1369615162_7_0" index="0" disallow="tram rail_urban rail rail_electric rail_fast ship" speed="13.89" length="15.32" shape="2232.36,2142.76 2234.10,2139.37 2235.86,2135.93 2237.48,2132.43 2238.77,2128.87"/>
    </edge>
    <edge id=":1369615162_8" function="internal">
        <lane id=":1369615162_8_0" index="0" disallow="tram rail_urban rail rail_electric rail_fast ship" speed="3.65" length="2.34" shape="2232.36,2142.76 2232.18,2141.33 2231.63,2140.62"/>
    </edge>
    <edge id=":1369615162_11" function="internal">
        <lane id=":1369615162_11_0" index="0" disallow="tram rail_urban rail rail_electric rail_fast ship" speed="3.65" length="2.34" shape="2231.63,2140.62 2230.74,2140.62 2229.49,2141.34"/>
    </edge>
    <edge id=":1369615164_0" function="internal">
        <lane id=":1369615164_0_0" index="0" disallow="pedestrian bicycle tram rail_urban rail rail_electric rail_fast ship" speed="8.09" length="14.62" shape="2537.44,2324.02 2535.25,2324.22 2530.51,2323.68 2525.61,2322.92 2522.95,2322.47"/>
    </edge>
    <edge id=":1369615164_1" function="internal">
        <lane id=":1369615164_1_0" index="0" disallow="pedestrian bicycle tram rail_urban rail rail_electric rail_fast ship" speed="8.36" length="15.54" shape="2537.44,2324.02 2537.27,2328.62 2538.39,2332.11 2540.80,2334.48 2544.49,2335.73"/>
    </edge>
    <edge id=":1369615164_2" function="internal">
        <lane id=":1369615164_2_0" index="0" disallow="tram rail_urban rail rail_electric rail_fast ship" speed="3.65" length="4.67" shape="2537.44,2324.02 2538.04,2325.33 2538.77,2325.85 2539.62,2325.58 2540.60,2324.52"/>
    </edge>
    <edge id=":1369615164_3" function="internal">
        <lane id=":1369615164_3_0" index="0" disallow="pedestrian bicycle tram rail_urban rail rail_electric rail_fast ship" speed="6.95" length="10.40" shape="2545.00,2332.57 2542.65,2331.73 2541.14,2330.11 2540.45,2327.71 2540.60,2324.52"/>
    </edge>
    <edge id=":1369615164_4" function="internal">
        <lane id=":1369615164_4_0" index="0" disallow="pedestrian bicycle tram rail_urban rail rail_electric rail_fast ship" speed="27.78" length="24.91" shape="2545.00,2332.57 2540.58,2331.35 2534.93,2329.30 2528.36,2327.11 2521.17,2325.42"/>
    </edge>
    <edge id=":1369615164_5" function="internal">
        <lane id=":1369615164_5_0" index="0" disallow="pedestrian bicycle tram rail_urban rail rail_electric rail_fast ship" speed="3.65" length="2.34" shape="2545.00,2332.57 2543.69,2333.17 2543.17,2333.90"/>
    </edge>
    <edge id=":1369615164_9" function="internal">
        <lane id=":1369615164_9_0" index="0" disallow="pedestrian bicycle tram rail_urban rail rail_electric rail_fast ship" speed="3.65" length="2.34" shape="2543.17,2333.90 2543.43,2334.75 2544.49,2335.73"/>
    </edge>
    <edge id=":1369615164_6" function="internal">
        <lane id=":1369615164_6_0" index="0" disallow="pedestrian bicycle tram rail_urban rail rail_electric rail_fast ship" speed="27.78" length="25.25" shape="2519.45,2332.55 2544.49,2335.73"/>
    </edge>
    <edge id=":1369615164_7" function="internal">
        <lane id=":1369615164_7_0" index="0" disallow="pedestrian bicycle tram rail_urban rail rail_electric rail_fast ship" speed="10.62" length="16.12" shape="2519.45,2332.55 2528.10,2332.88 2534.51,2331.65 2535.29,2331.13"/>
    </edge>
    <edge id=":1369615164_8" function="internal">
        <lane id=":1369615164_8_0" index="0" disallow="pedestrian bicycle tram rail_urban rail rail_electric rail_fast ship" speed="3.98" length="3.45" shape="2519.81,2329.37 2521.31,2328.91 2522.21,2327.63 2522.22,2327.31"/>
    </edge>
    <edge id=":1369615164_10" function="internal">
        <lane id=":1369615164_10_0" index="0" disallow="pedestrian bicycle tram rail_urban rail rail_electric rail_fast ship" speed="10.62" length="8.83" shape="2535.29,2331.13 2538.67,2328.87 2540.60,2324.52"/>
    </edge>
    <edge id=":1369615164_11" function="internal">
        <lane id=":1369615164_11_0" index="0" disallow="pedestrian bicycle tram rail_urban rail rail_electric rail_fast ship" speed="3.98" length="2.43" shape="2522.22,2327.31 2522.24,2326.23 2521.17,2325.42"/>
    </edge>
    <edge id=":1369615209_0" function="internal">
        <lane id=":1369615209_0_0" index="0" disallow="tram rail_urban rail rail_electric rail_fast ship" speed="11.84" length="11.64" shape="2461.94,2023.05 2461.11,2026.22 2460.19,2028.69 2458.72,2030.76 2456.25,2032.76"/>
    </edge>
    <edge id=":1369615209_1" function="internal">
        <lane id=":1369615209_1_0" index="0" disallow="tram rail_urban rail rail_electric rail_fast ship" speed="7.66" length="15.13" shape="2461.94,2023.05 2461.47,2027.31 2462.57,2030.40 2465.23,2032.30 2469.46,2033.03"/>
    </edge>
    <edge id=":1369615209_2" function="internal">
        <lane id=":1369615209_2_0" index="0" disallow="tram rail_urban rail rail_electric rail_fast ship" speed="3.65" length="4.67" shape="2461.94,2023.05 2462.42,2024.41 2463.09,2025.00 2463.97,2024.81 2465.04,2023.85"/>
    </edge>
    <edge id=":1369615209_3" function="internal">
        <lane id=":1369615209_3_0" index="0" disallow="tram rail_urban rail rail_electric rail_fast ship" speed="6.07" length="9.07" shape="2469.55,2029.83 2467.01,2029.39 2465.42,2028.25 2464.76,2026.40 2465.04,2023.85"/>
    </edge>
    <edge id=":1369615209_4" function="internal">
        <lane id=":1369615209_4_0" index="0" disallow="tram rail_urban rail rail_electric rail_fast ship" speed="13.89" length="13.85" shape="2469.55,2029.83 2465.95,2029.84 2462.59,2030.21 2459.38,2031.12 2456.25,2032.76"/>
    </edge>
    <edge id=":1369615209_5" function="internal">
        <lane id=":1369615209_5_0" index="0" disallow="tram rail_urban rail rail_electric rail_fast ship" speed="3.65" length="2.34" shape="2469.55,2029.83 2468.33,2030.60 2467.90,2031.38"/>
    </edge>
    <edge id=":1369615209_9" function="internal">
        <lane id=":1369615209_9_0" index="0" disallow="tram rail_urban rail rail_electric rail_fast ship" speed="3.65" length="2.34" shape="2467.90,2031.38 2468.28,2032.19 2469.46,2033.03"/>
    </edge>
    <edge id=":1369615209_6" function="internal">
        <lane id=":1369615209_6_0" index="0" disallow="tram rail_urban rail rail_electric rail_fast ship" speed="13.85" length="11.95" shape="2458.02,2035.43 2460.86,2033.87 2463.43,2033.14 2466.15,2032.96 2469.46,2033.03"/>
    </edge>
    <edge id=":1369615209_7" function="internal">
        <lane id=":1369615209_7_0" index="0" disallow="tram rail_urban rail rail_electric rail_fast ship" speed="12.90" length="4.64" shape="2458.02,2035.43 2460.70,2033.14 2461.34,2032.23"/>
    </edge>
    <edge id=":1369615209_8" function="internal">
        <lane id=":1369615209_8_0" index="0" disallow="tram rail_urban rail rail_electric rail_fast ship" speed="3.65" length="2.15" shape="2458.02,2035.43 2458.57,2034.10 2458.49,2033.40"/>
    </edge>
    <edge id=":1369615209_10" function="internal">
        <lane id=":1369615209_10_0" index="0" disallow="tram rail_urban rail rail_electric rail_fast ship" speed="12.90" length="9.23" shape="2461.34,2032.23 2462.62,2030.42 2464.00,2027.31 2465.04,2023.85"/>
    </edge>
    <edge id=":1369615209_11" function="internal">
        <lane id=":1369615209_11_0" index="0" disallow="tram rail_urban rail rail_electric rail_fast ship" speed="3.65" length="2.52" shape="2458.49,2033.40 2458.47,2033.21 2457.69,2032.77 2456.25,2032.76"/>
    </edge>
    <edge id=":1464088395_0" function="internal">
        <lane id=":1464088395_0_0" index="0" disallow="pedestrian bicycle tram rail_urban rail rail_electric rail_fast ship" speed="6.87" length="9.56" shape="753.66,1598.54 752.74,1601.11 751.31,1602.83 749.37,1603.71 746.91,1603.76"/>
    </edge>
    <edge id=":1464088395_1" function="internal">
        <lane id=":1464088395_1_0" index="0" disallow="tram rail_urban rail rail_electric rail_fast ship" speed="3.65" length="4.67" shape="753.66,1598.54 754.18,1599.88 754.88,1600.45 755.74,1600.23 756.79,1599.23"/>
    </edge>
    <edge id=":1464088395_2" function="internal">
        <lane id=":1464088395_2_0" index="0" disallow="pedestrian bicycle tram rail_urban rail rail_electric rail_fast ship" speed="6.27" length="9.04" shape="761.30,1605.48 758.85,1604.87 757.29,1603.63 756.60,1601.75 756.79,1599.23"/>
    </edge>
    <edge id=":1464088395_3" function="internal">
        <lane id=":1464088395_3_0" index="0" disallow="pedestrian bicycle tram rail_urban rail rail_electric rail_fast ship" speed="27.78" length="14.55" shape="761.30,1605.48 746.91,1603.76"/>
        <lane id=":1464088395_3_1" index="1" disallow="pedestrian bicycle tram rail_urban rail rail_electric rail_fast ship" speed="27.78" length="14.55" shape="760.97,1608.67 746.47,1606.92"/>
    </edge>
    <edge id=":1464088413_0" function="internal">
        <lane id=":1464088413_0_0" index="0" disallow="pedestrian bicycle tram rail_urban rail rail_electric rail_fast ship" speed="10.47" length="6.58" shape="1449.25,1510.76 1449.32,1512.92 1449.67,1514.39 1450.43,1515.73 1451.72,1517.49"/>
        <lane id=":1464088413_0_1" index="1" disallow="pedestrian bicycle tram rail_urban rail rail_electric rail_fast ship" speed="9.30" length="6.58" shape="1452.45,1510.81 1452.54,1512.48 1452.88,1513.59 1453.54,1514.61 1454.57,1515.97"/>
    </edge>
    <edge id=":1464088413_2" function="internal">
        <lane id=":1464088413_2_0" index="0" disallow="pedestrian bicycle tram rail_urban rail rail_electric rail_fast ship" speed="7.21" length="7.46" shape="1445.10,1515.10 1447.11,1514.95 1448.89,1515.30 1450.43,1516.14 1451.72,1517.49"/>
    </edge>
    <edge id=":1464088413_3" function="internal">
        <lane id=":1464088413_3_0" index="0" disallow="pedestrian bicycle tram rail_urban rail rail_electric rail_fast ship" speed="8.81" length="11.48" shape="1444.50,1511.96 1447.48,1511.76 1450.15,1512.37 1452.51,1513.77 1454.57,1515.97"/>
    </edge>
    <edge id=":1464088459_0" function="internal">
        <lane id=":1464088459_0_0" index="0" disallow="pedestrian bicycle tram rail_urban rail rail_electric rail_fast ship" speed="6.48" length="9.03" shape="1541.02,1585.86 1538.91,1587.17 1536.90,1587.48 1534.98,1586.79 1533.16,1585.11"/>
    </edge>
    <edge id=":1464088459_1" function="internal">
        <lane id=":1464088459_1_0" index="0" disallow="tram rail_urban rail rail_electric rail_fast ship" speed="3.65" length="4.67" shape="1541.02,1585.86 1540.61,1587.25 1540.82,1588.12 1541.64,1588.48 1543.07,1588.32"/>
    </edge>
    <edge id=":1464088459_2" function="internal">
        <lane id=":1464088459_2_0" index="0" disallow="pedestrian bicycle tram rail_urban rail rail_electric rail_fast ship" speed="6.51" length="9.06" shape="1542.35,1596.23 1541.05,1594.13 1540.73,1592.11 1541.41,1590.17 1543.07,1588.32"/>
    </edge>
    <edge id=":1464088459_3" function="internal">
        <lane id=":1464088459_3_0" index="0" disallow="pedestrian bicycle tram rail_urban rail rail_electric rail_fast ship" speed="27.78" length="14.45" shape="1542.35,1596.23 1533.16,1585.11"/>
        <lane id=":1464088459_3_1" index="1" disallow="pedestrian bicycle tram rail_urban rail rail_electric rail_fast ship" speed="27.78" length="14.45" shape="1539.90,1598.29 1530.68,1587.13"/>
    </edge>
    <edge id=":1464095038_0" function="internal">
        <lane id=":1464095038_0_0" index="0" disallow="pedestrian bicycle tram rail_urban rail rail_electric rail_fast ship" speed="27.78" length="13.95" shape="3024.47,2388.84 3021.11,2390.10 3017.89,2391.18 3014.64,2392.12 3011.15,2392.94"/>
    </edge>
    <edge id=":1464095038_1" function="internal">
        <lane id=":1464095038_1_0" index="0" disallow="pedestrian bicycle tram rail_urban rail rail_electric rail_fast ship" speed="7.62" length="5.87" shape="3024.47,2388.84 3020.66,2390.97 3019.80,2392.21"/>
    </edge>
    <edge id=":1464095038_2" function="internal">
        <lane id=":1464095038_2_0" index="0" disallow="pedestrian bicycle tram rail_urban rail rail_electric rail_fast ship" speed="3.65" length="2.34" shape="3024.47,2388.84 3023.63,2390.02 3023.55,2390.91"/>
    </edge>
    <edge id=":1464095038_9" function="internal">
        <lane id=":1464095038_9_0" index="0" disallow="pedestrian bicycle tram rail_urban rail rail_electric rail_fast ship" speed="7.62" length="9.40" shape="3019.80,2392.21 3018.80,2393.67 3018.88,2396.95 3020.90,2400.81"/>
    </edge>
    <edge id=":1464095038_10" function="internal">
        <lane id=":1464095038_10_0" index="0" disallow="pedestrian bicycle tram rail_urban rail rail_electric rail_fast ship" speed="3.65" length="2.34" shape="3023.55,2390.91 3024.21,2391.51 3025.61,2391.83"/>
    </edge>
    <edge id=":1464095038_3" function="internal">
        <lane id=":1464095038_3_0" index="0" disallow="pedestrian bicycle tram rail_urban rail rail_electric rail_fast ship" speed="6.02" length="9.07" shape="3023.49,2398.94 3022.29,2396.65 3022.25,2394.70 3023.36,2393.09 3025.61,2391.83"/>
    </edge>
    <edge id=":1464095038_4" function="internal">
        <lane id=":1464095038_4_0" index="0" disallow="pedestrian bicycle tram rail_urban rail rail_electric rail_fast ship" speed="9.71" length="14.56" shape="3023.49,2398.94 3020.71,2395.77 3017.72,2393.71 3014.53,2392.77 3011.15,2392.94"/>
    </edge>
    <edge id=":1464095038_5" function="internal">
        <lane id=":1464095038_5_0" index="0" disallow="tram rail_urban rail rail_electric rail_fast ship" speed="3.65" length="4.67" shape="3023.49,2398.94 3022.14,2398.43 3021.26,2398.58 3020.85,2399.37 3020.90,2400.81"/>
    </edge>
    <edge id=":1464095038_6" function="internal">
        <lane id=":1464095038_6_0" index="0" disallow="pedestrian bicycle tram rail_urban rail rail_electric rail_fast ship" speed="8.45" length="10.86" shape="3011.81,2396.08 3014.23,2395.98 3016.55,2396.74 3018.77,2398.35 3020.90,2400.81"/>
    </edge>
    <edge id=":1464095038_7" function="internal">
        <lane id=":1464095038_7_0" index="0" disallow="pedestrian bicycle tram rail_urban rail rail_electric rail_fast ship" speed="27.78" length="14.46" shape="3011.81,2396.08 3015.37,2395.23 3018.80,2394.24 3022.18,2393.11 3025.61,2391.83"/>
    </edge>
    <edge id=":1464095038_8" function="internal">
        <lane id=":1464095038_8_0" index="0" disallow="pedestrian bicycle tram rail_urban rail rail_electric rail_fast ship" speed="3.65" length="2.34" shape="3011.81,2396.08 3012.82,2395.05 3013.04,2394.18"/>
    </edge>
    <edge id=":1464095038_11" function="internal">
        <lane id=":1464095038_11_0" index="0" disallow="pedestrian bicycle tram rail_urban rail rail_electric rail_fast ship" speed="3.65" length="2.34" shape="3013.04,2394.18 3012.49,2393.48 3011.15,2392.94"/>
    </edge>
    <edge id=":1464112021_0" function="internal">
        <lane id=":1464112021_0_0" index="0" disallow="tram rail_urban rail rail_electric rail_fast ship" speed="3.65" length="4.67" shape="525.15,3228.80 526.27,3229.71 527.15,3229.86 527.80,3229.24 528.21,3227.86"/>
    </edge>
    <edge id=":1464112055_0" function="internal">
        <lane id=":1464112055_0_0" index="0" disallow="tram rail_urban rail rail_electric rail_fast ship" speed="6.53" length="8.18" shape="1425.10,2135.58 1424.71,2137.75 1423.73,2139.37 1422.17,2140.42 1420.02,2140.92"/>
    </edge>
    <edge id=":1464112055_1" function="internal">
        <lane id=":1464112055_1_0" index="0" disallow="tram rail_urban rail rail_electric rail_fast ship" speed="22.32" length="12.73" shape="1425.10,2135.58 1425.08,2138.98 1425.35,2141.94 1426.00,2144.84 1427.08,2148.05"/>
    </edge>
    <edge id=":1464112055_2" function="internal">
        <lane id=":1464112055_2_0" index="0" disallow="tram rail_urban rail rail_electric rail_fast ship" speed="7.03" length="8.50" shape="1420.31,2144.11 1422.65,2144.18 1424.56,2144.86 1426.04,2146.15 1427.08,2148.05"/>
    </edge>
    <edge id=":1464112055_3" function="internal">
        <lane id=":1464112055_3_0" index="0" disallow="tram rail_urban rail rail_electric rail_fast ship" speed="3.65" length="4.67" shape="1420.31,2144.11 1421.43,2143.21 1421.76,2142.37 1421.29,2141.61 1420.02,2140.92"/>
    </edge>
    <edge id=":1470902987_0" function="internal">
        <lane id=":1470902987_0_0" index="0" disallow="tram rail_urban rail rail_electric rail_fast ship" speed="3.65" length="4.67" shape="781.67,1230.40 780.89,1229.19 780.10,1228.77 779.29,1229.15 778.47,1230.34"/>
    </edge>
    <edge id=":1470903019_0" function="internal">
        <lane id=":1470903019_0_0" index="0" disallow="tram rail_urban rail rail_electric rail_fast ship" speed="3.65" length="4.67" shape="614.20,1385.73 612.89,1386.33 612.37,1387.06 612.64,1387.91 613.70,1388.89"/>
    </edge>
    <edge id=":1470903027_0" function="internal">
        <lane id=":1470903027_0_0" index="0" disallow="tram rail_urban rail rail_electric rail_fast ship" speed="6.64" length="8.92" shape="784.59,1407.74 783.70,1409.97 782.30,1411.43 780.38,1412.14 777.93,1412.08"/>
    </edge>
    <edge id=":1470903027_1" function="internal">
        <lane id=":1470903027_1_0" index="0" disallow="tram rail_urban rail rail_electric rail_fast ship" speed="13.89" length="13.98" shape="784.59,1407.74 783.80,1411.24 783.14,1414.58 782.58,1417.93 782.09,1421.48"/>
    </edge>
    <edge id=":1470903027_2" function="internal">
        <lane id=":1470903027_2_0" index="0" disallow="tram rail_urban rail rail_electric rail_fast ship" speed="3.65" length="2.34" shape="784.59,1407.74 785.09,1409.09 785.77,1409.66"/>
    </edge>
    <edge id=":1470903027_9" function="internal">
        <lane id=":1470903027_9_0" index="0" disallow="tram rail_urban rail rail_electric rail_fast ship" speed="3.65" length="2.34" shape="785.77,1409.66 786.64,1409.46 787.70,1408.48"/>
    </edge>
    <edge id=":1470903027_3" function="internal">