<?xml version="1.0" encoding="UTF-8"?>

<!-- generated on 02/16/21 18:14:21 by Eclipse SUMO duarouter Version 1.7.0
<configuration xmlns:xsi="http://www.w3.org/2001/XMLSchema-instance" xsi:noNamespaceSchemaLocation="http://sumo.dlr.de/xsd/duarouterConfiguration.xsd">

    <input>
        <net-file value="C:\Users\Dell\Sumo\2021-02-16-18-14-10\osm.net.xml"/>
        <route-files value="C:\Users\Dell\Sumo\2021-02-16-18-14-10\osm.motorcycle.trips.xml"/>
    </input>

    <output>
        <output-file value="C:\Users\Dell\Sumo\2021-02-16-18-14-10\osm.motorcycle.trips.xml.tmp"/>
        <write-trips value="true"/>
    </output>

    <time>
        <begin value="0"/>
        <end value="3600"/>
    </time>

    <report>
        <no-warnings value="true"/>
        <ignore-errors value="true"/>
        <no-step-log value="true"/>
    </report>

</configuration>
-->

<routes xmlns:xsi="http://www.w3.org/2001/XMLSchema-instance" xsi:noNamespaceSchemaLocation="http://sumo.dlr.de/xsd/routes_file.xsd">
    <vType id="moto_motorcycle" vClass="motorcycle"/>
    <trip id="moto0" type="moto_motorcycle" depart="0.00" departLane="best" from="171902831#2" to="-133755118#1"/>
    <trip id="moto1" type="moto_motorcycle" depart="8.57" departLane="best" from="-246989087#0" to="-186258455#1"/>
    <trip id="moto2" type="moto_motorcycle" depart="17.13" departLane="best" from="246989087#1" to="186258452"/>
    <trip id="moto3" type="moto_motorcycle" depart="25.70" departLane="best" from="-800610509#2" to="-133755118#4"/>
    <trip id="moto4" type="moto_motorcycle" depart="34.27" departLane="best" from="-186258452" to="133755126#2"/>
    <trip id="moto5" type="moto_motorcycle" depart="42.83" departLane="best" from="-133755118#2" to="-186250796"/>
    <trip id="moto6" type="moto_motorcycle" depart="51.40" departLane="best" from="171902839#4" to="171865791"/>
    <trip id="moto7" type="moto_motorcycle" depart="59.96" departLane="best" from="-186258453" to="171867130#1"/>
    <trip id="moto8" type="moto_motorcycle" depart="68.53" departLane="best" from="373896382#6" to="-122612374#2"/>
    <trip id="moto9" type="moto_motorcycle" depart="77.10" departLane="best" from="373896382#3" to="186263433#2"/>
    <trip id="moto10" type="moto_motorcycle" depart="85.66" departLane="best" from="800669878" to="-306475951"/>
    <trip id="moto11" type="moto_motorcycle" depart="94.23" departLane="best" from="-171865797#0" to="-171865797#10"/>
    <trip id="moto12" type="moto_motorcycle" depart="102.80" departLane="best" from="374530997#0" to="171867136#1"/>
    <trip id="moto13" type="moto_motorcycle" depart="111.36" departLane="best" from="373896382#4" to="246989083#0"/>
    <trip id="moto14" type="moto_motorcycle" depart="119.93" departLane="best" from="158486424#3" to="803758023"/>
    <trip id="moto15" type="moto_motorcycle" depart="128.50" departLane="best" from="-706734275#2" to="171865792#3"/>
    <trip id="moto16" type="moto_motorcycle" depart="137.06" departLane="best" from="374529118#6" to="171870081#1"/>
    <trip id="moto17" type="moto_motorcycle" depart="145.63" departLane="best" from="374533524#2" to="171867126#0"/>
    <trip id="moto18" type="moto_motorcycle" depart="154.19" departLane="best" from="186276679#1" to="-133755126#5"/>
    <trip id="moto19" type="moto_motorcycle" depart="162.76" departLane="best" from="-171865789" to="-186262687#0"/>
    <trip id="moto20" type="moto_motorcycle" depart="171.33" departLane="best" from="-171865797#3" to="-246989092#1"/>
    <trip id="moto21" type="moto_motorcycle" depart="179.89" departLane="best" from="171902829#0" to="-706318010"/>
    <trip id="moto23" type="moto_motorcycle" depart="197.03" departLane="best" from="-246982749" to="800610496"/>
    <trip id="moto24" type="moto_motorcycle" depart="205.59" departLane="best" from="171902839#3" to="171867137#0"/>
    <trip id="moto25" type="moto_motorcycle" depart="214.16" departLane="best" from="-171870084#1" to="-706734275#3"/>
    <trip id="moto27" type="moto_motorcycle" depart="231.29" departLane="best" from="171865792#8" to="186258456"/>
    <trip id="moto28" type="moto_motorcycle" depart="239.86" departLane="best" from="374529122#1" to="306475942#1"/>
    <trip id="moto29" type="moto_motorcycle" depart="248.43" departLane="best" from="-186258462#0" to="-133755126#1"/>
    <trip id="moto31" type="moto_motorcycle" depart="265.56" departLane="best" from="-186254736#5" to="800610509#0"/>
    <trip id="moto32" type="moto_motorcycle" depart="274.12" departLane="best" from="374533525#4" to="-306475942#2"/>
    <trip id="moto33" type="moto_motorcycle" depart="282.69" departLane="best" from="800384377" to="-817230302"/>
    <trip id="moto34" type="moto_motorcycle" depart="291.26" departLane="best" from="171867128" to="706734275#1"/>
    <trip id="moto35" type="moto_motorcycle" depart="299.82" departLane="best" from="809425538" to="133755126#4"/>
    <trip id="moto36" type="moto_motorcycle" depart="308.39" departLane="best" from="306475946#3" to="-800610509#2"/>
    <trip id="moto38" type="moto_motorcycle" depart="325.52" departLane="best" from="803758021" to="374533524#1"/>
    <trip id="moto39" type="moto_motorcycle" depart="334.09" departLane="best" from="-133637883#0" to="245441027#1"/>
    <trip id="moto40" type="moto_motorcycle" depart="342.66" departLane="best" from="186258455#1" to="158486424#4"/>
    <trip id="moto41" type="moto_motorcycle" depart="351.22" departLane="best" from="-246982749" to="171902837"/>
    <trip id="moto42" type="moto_motorcycle" depart="359.79" departLane="best" from="-171865800" to="-800669888"/>
    <trip id="moto44" type="moto_motorcycle" depart="376.92" departLane="best" from="374533525#4" to="-245441027#2"/>
    <trip id="moto45" type="moto_motorcycle" depart="385.49" departLane="best" from="133755126#12" to="-171902829#1"/>
    <trip id="moto46" type="moto_motorcycle" depart="394.05" departLane="best" from="720452476" to="374533525#0"/>
    <trip id="moto47" type="moto_motorcycle" depart="402.62" departLane="best" from="-290520226" to="171902831#0"/>
    <trip id="moto48" type="moto_motorcycle" depart="411.19" departLane="best" from="171867137#0" to="-171867138#1"/>
    <trip id="moto49" type="moto_motorcycle" depart="419.75" departLane="best" from="290646812#0" to="158486424#5"/>
    <trip id="moto50" type="moto_motorcycle" depart="428.32" departLane="best" from="-122612356#0" to="-306475945"/>
    <trip id="moto51" type="moto_motorcycle" depart="436.89" departLane="best" from="578203893" to="374529118#7"/>
    <trip id="moto53" type="moto_motorcycle" depart="454.02" departLane="best" from="-158486424#2" to="288926324#5"/>
    <trip id="moto54" type="moto_motorcycle" depart="462.58" departLane="best" from="-245441809#0" to="374533525#2"/>
    <trip id="moto55" type="moto_motorcycle" depart="471.15" departLane="best" from="-800610509#2" to="-186254736#5"/>
    <trip id="moto56" type="moto_motorcycle" depart="479.72" departLane="best" from="-186254733#0" to="-306475942#1"/>
    <trip id="moto58" type="moto_motorcycle" depart="496.85" departLane="best" from="-800715314" to="135530186#0"/>
    <trip id="moto59" type="moto_motorcycle" depart="505.42" departLane="best" from="-171867129" to="-186258455#2"/>
    <trip id="moto60" type="moto_motorcycle" depart="513.98" departLane="best" from="-186258462#1" to="-186258453"/>
    <trip id="moto61" type="moto_motorcycle" depart="522.55" departLane="best" from="-158486424#3" to="171870086#1"/>
    <trip id="moto62" type="moto_motorcycle" depart="531.12" departLane="best" from="-186258462#0" to="706734276#2"/>
    <trip id="moto63" type="moto_motorcycle" depart="539.68" departLane="best" from="374533524#1" to="-158486424#3"/>
    <trip id="moto64" type="moto_motorcycle" depart="548.25" departLane="best" from="-186263433#1" to="186254736#4"/>
    <trip id="moto65" type="moto_motorcycle" depart="556.82" departLane="best" from="800610495#1" to="171865797#6"/>
    <trip id="moto66" type="moto_motorcycle" depart="565.38" departLane="best" from="133055393#0" to="306475944#1"/>
    <trip id="moto67" type="moto_motorcycle" depart="573.95" departLane="best" from="373896382#4" to="-171902839#4"/>
    <trip id="moto68" type="moto_motorcycle" depart="582.51" departLane="best" from="-171865797#10" to="-800669875"/>
    <trip id="moto69" type="moto_motorcycle" depart="591.08" departLane="best" from="-800610510" to="122612374#2"/>
    <trip id="moto70" type="moto_motorcycle" depart="599.65" departLane="best" from="246989083#0" to="186254736#7"/>
    <trip id="moto71" type="moto_motorcycle" depart="608.21" departLane="best" from="-800610509#2" to="-246989092#1"/>
    <trip id="moto72" type="moto_motorcycle" depart="616.78" departLane="best" from="-236471190" to="800384382"/>
    <trip id="moto73" type="moto_motorcycle" depart="625.35" departLane="best" from="-803758020" to="374533524#2"/>
    <trip id="moto74" type="moto_motorcycle" depart="633.91" departLane="best" from="171865792#2" to="-133755126#8"/>
    <trip id="moto75" type="moto_motorcycle" depart="642.48" departLane="best" from="374530997#1" to="-171870084#3"/>
    <trip id="moto76" type="moto_motorcycle" depart="651.05" departLane="best" from="133755118#0" to="-186254736#6"/>
    <trip id="moto77" type="moto_motorcycle" depart="659.61" departLane="best" from="-706734275#3" to="804207591#5"/>
    <trip id="moto78" type="moto_motorcycle" depart="668.18" departLane="best" from="-245441809#1" to="306475944#0"/>
    <trip id="moto80" type="moto_motorcycle" depart="685.31" departLane="best" from="171865792#7" to="236471196"/>
    <trip id="moto81" type="moto_motorcycle" depart="693.88" departLane="best" from="-171870075#0" to="-288926324#5"/>
    <trip id="moto82" type="moto_motorcycle" depart="702.44" departLane="best" from="-171865791" to="-171902839#1"/>
    <trip id="moto83" type="moto_motorcycle" depart="711.01" departLane="best" from="-186263433#0" to="-171867129"/>
    <trip id="moto84" type="moto_motorcycle" depart="719.58" departLane="best" from="-800610509#0" to="171867128"/>
    <trip id="moto85" type="moto_motorcycle" depart="728.14" departLane="best" from="135530186#3" to="800610495#1"/>
    <trip id="moto86" type="moto_motorcycle" depart="736.71" departLane="best" from="-186263433#2" to="-800384380"/>
    <trip id="moto88" type="moto_motorcycle" depart="753.84" departLane="best" from="-158486424#4" to="-809425538"/>
    <trip id="moto89" type="moto_motorcycle" depart="762.41" departLane="best" from="-158486424#4" to="-186254736#6"/>
    <trip id="moto90" type="moto_motorcycle" depart="770.97" departLane="best" from="-245441809#1" to="800610495#0"/>
    <trip id="moto92" type="moto_motorcycle" depart="788.11" departLane="best" from="374529112#2" to="-290646812#0"/>
    <trip id="moto93" type="moto_motorcycle" depart="796.67" departLane="best" from="186254736#0" to="800610498#0"/>
    <trip id="moto94" type="moto_motorcycle" depart="805.24" departLane="best" from="-171867133" to="-171867127#0"/>
    <trip id="moto95" type="moto_motorcycle" depart="813.81" departLane="best" from="-171865797#7" to="171865792#5"/>
    <trip id="moto96" type="moto_motorcycle" depart="822.37" departLane="best" from="-800610510" to="-246989092#0"/>
    <trip id="moto97" type="moto_motorcycle" depart="830.94" departLane="best" from="-122612374#0" to="306475941#1"/>
    <trip id="moto98" type="moto_motorcycle" depart="839.51" departLane="best" from="246989092#1" to="171865792#3"/>
    <trip id="moto99" type="moto_motorcycle" depart="848.07" departLane="best" from="-800669862" to="-122612374#4"/>
    <trip id="moto100" type="moto_motorcycle" depart="856.64" departLane="best" from="-171865779" to="706318004#0"/>
    <trip id="moto101" type="moto_motorcycle" depart="865.21" departLane="best" from="706734276#1" to="171865791"/>
    <trip id="moto102" type="moto_motorcycle" depart="873.77" departLane="best" from="-171867137#0" to="-171867130#3"/>
    <trip id="moto104" type="moto_motorcycle" depart="890.90" departLane="best" from="306475949" to="374533524#1"/>
    <trip id="moto105" type="moto_motorcycle" depart="899.47" departLane="best" from="706734275#1" to="-186254736#4"/>
    <trip id="moto106" type="moto_motorcycle" depart="908.04" departLane="best" from="-236471190" to="-171865797#4"/>
    <trip id="moto108" type="moto_motorcycle" depart="925.17" departLane="best" from="-800384389" to="171870082"/>
    <trip id="moto109" type="moto_motorcycle" depart="933.74" departLane="best" from="374533524#4" to="803758026#0"/>
    <trip id="moto110" type="moto_motorcycle" depart="942.30" departLane="best" from="373896382#7" to="646246743"/>
    <trip id="moto111" type="moto_motorcycle" depart="950.87" departLane="best" from="-306475948" to="800384389"/>
    <trip id="moto112" type="moto_motorcycle" depart="959.44" departLane="best" from="373896382#7" to="-246982749"/>
    <trip id="moto113" type="moto_motorcycle" depart="968.00" departLane="best" from="306475945" to="-171865797#7"/>
    <trip id="moto114" type="moto_motorcycle" depart="976.57" departLane="best" from="374533525#1" to="374533523#1"/>
    <trip id="moto115" type="moto_motorcycle" depart="985.13" departLane="best" from="-186258455#1" to="374529112#2"/>
    <trip id="moto116" type="moto_motorcycle" depart="993.70" departLane="best" from="122612356#0" to="-306475941#0"/>
    <trip id="moto117" type="moto_motorcycle" depart="1002.27" departLane="best" from="306475948" to="-186258459"/>
    <trip id="moto118" type="moto_motorcycle" depart="1010.83" departLane="best" from="-306475946#3" to="374533524#4"/>
    <trip id="moto119" type="moto_motorcycle" depart="1019.40" departLane="best" from="171902837" to="-800384383"/>
    <trip id="moto120" type="moto_motorcycle" depart="1027.97" departLane="best" from="800610498#0" to="-171867127#0"/>
    <trip id="moto121" type="moto_motorcycle" depart="1036.53" departLane="best" from="-171865797#7" to="-800669888"/>
    <trip id="moto122" type="moto_motorcycle" depart="1045.10" departLane="best" from="171867136#3" to="133755126#6"/>
    <trip id="moto123" type="moto_motorcycle" depart="1053.67" departLane="best" from="-706734276#3" to="171865800"/>
    <trip id="moto124" type="moto_motorcycle" depart="1062.23" departLane="best" from="-236471195#0" to="236471188#1"/>
    <trip id="moto125" type="moto_motorcycle" depart="1070.80" departLane="best" from="-122612356#1" to="800384387#0"/>
    <trip id="moto126" type="moto_motorcycle" depart="1079.36" departLane="best" from="158486424#5" to="245441027#0"/>
    <trip id="moto127" type="moto_motorcycle" depart="1087.93" departLane="best" from="246989092#1" to="186254736#5"/>
    <trip id="moto128" type="moto_motorcycle" depart="1096.50" departLane="best" from="-706318010" to="-158486424#2"/>
    <trip id="moto129" type="moto_motorcycle" depart="1105.06" departLane="best" from="186254736#0" to="-306475946#4"/>
    <trip id="moto132" type="moto_motorcycle" depart="1130.76" departLane="best" from="-800384387#0" to="-288926324#5"/>
    <trip id="moto133" type="moto_motorcycle" depart="1139.33" departLane="best" from="-171867130#3" to="-800610509#1"/>
    <trip id="moto134" type="moto_motorcycle" depart="1147.90" departLane="best" from="800610498#1" to="186258453"/>
    <trip id="moto135" type="moto_motorcycle" depart="1156.46" departLane="best" from="706734276#1" to="171870075#1"/>
    <trip id="moto136" type="moto_motorcycle" depart="1165.03" departLane="best" from="-290646812#1" to="171865792#10"/>
    <trip id="moto137" type="moto_motorcycle" depart="1173.59" departLane="best" from="-800669875" to="171867127#0"/>
    <trip id="moto138" type="moto_motorcycle" depart="1182.16" departLane="best" from="133055393#1" to="706734275#3"/>
    <trip id="moto139" type="moto_motorcycle" depart="1190.73" departLane="best" from="-171865792#2" to="133755126#8"/>
    <trip id="moto140" type="moto_motorcycle" depart="1199.29" departLane="best" from="171870086#2" to="-306475950"/>
    <trip id="moto141" type="moto_motorcycle" depart="1207.86" departLane="best" from="374529112#3" to="286438372"/>
    <trip id="moto142" type="moto_motorcycle" depart="1216.43" departLane="best" from="186254736#7" to="-186258455#2"/>
    <trip id="moto143" type="moto_motorcycle" depart="1224.99" departLane="best" from="-186250796" to="-133755118#1"/>
    <trip id="moto144" type="moto_motorcycle" depart="1233.56" departLane="best" from="374530997#1" to="-158486424#4"/>
    <trip id="moto145" type="moto_motorcycle" depart="1242.13" departLane="best" from="-800610498#0" to="171870086#0"/>
    <trip id="moto146" type="moto_motorcycle" depart="1250.69" departLane="best" from="-171902841#1" to="186263433#0"/>
    <trip id="moto147" type="moto_motorcycle" depart="1259.26" departLane="best" from="133755118#5" to="-186276679#0"/>
    <trip id="moto148" type="moto_motorcycle" depart="1267.83" departLane="best" from="286438372" to="306475941#1"/>
    <trip id="moto149" type="moto_motorcycle" depart="1276.39" departLane="best" from="-171865797#6" to="-800610511"/>
    <trip id="moto150" type="moto_motorcycle" depart="1284.96" departLane="best" from="-171902829#0" to="800669878"/>
    <trip id="moto151" type="moto_motorcycle" depart="1293.52" departLane="best" from="186254736#3" to="804217356#3"/>
    <trip id="moto152" type="moto_motorcycle" depart="1302.09" departLane="best" from="171867131#1" to="800610510"/>
    <trip id="moto154" type="moto_motorcycle" depart="1319.22" departLane="best" from="706734275#0" to="246989098#0"/>
    <trip id="moto155" type="moto_motorcycle" depart="1327.79" departLane="best" from="133637883#0" to="-245441027#0"/>
    <trip id="moto156" type="moto_motorcycle" depart="1336.36" departLane="best" from="-236471188#0" to="171902831#0"/>
    <trip id="moto158" type="moto_motorcycle" depart="1353.49" departLane="best" from="171865779" to="-171867135#1"/>
    <trip id="moto159" type="moto_motorcycle" depart="1362.06" departLane="best" from="-800610495#0" to="171865787"/>
    <trip id="moto160" type="moto_motorcycle" depart="1370.62" departLane="best" from="-800610498#1" to="-186254736#1"/>
    <trip id="moto161" type="moto_motorcycle" depart="1379.19" departLane="best" from="-800610509#1" to="706734276#2"/>
    <trip id="moto162" type="moto_motorcycle" depart="1387.75" departLane="best" from="171867128" to="186263433#0"/>
    <trip id="moto163" type="moto_motorcycle" depart="1396.32" departLane="best" from="374533523#0" to="306475940#0"/>
    <trip id="moto164" type="moto_motorcycle" depart="1404.89" departLane="best" from="-706734276#0" to="-122612374#1"/>
    <trip id="moto165" type="moto_motorcycle" depart="1413.45" departLane="best" from="171865791" to="171867136#1"/>
    <trip id="moto166" type="moto_motorcycle" depart="1422.02" departLane="best" from="-186258455#0" to="-186258453"/>
    <trip id="moto167" type="moto_motorcycle" depart="1430.59" departLane="best" from="-306475951" to="186258455#0"/>
    <trip id="moto168" type="moto_motorcycle" depart="1439.15" departLane="best" from="122612374#2" to="-171867130#3"/>
    <trip id="moto169" type="moto_motorcycle" depart="1447.72" departLane="best" from="171870084#1" to="-133755118#2"/>
    <trip id="moto170" type="moto_motorcycle" depart="1456.29" departLane="best" from="-800384379" to="171865797#2"/>
    <trip id="moto171" type="moto_motorcycle" depart="1464.85" departLane="best" from="-133755118#2" to="171902839#0"/>
    <trip id="moto172" type="moto_motorcycle" depart="1473.42" departLane="best" from="-171867133" to="122612356#1"/>
    <trip id="moto173" type="moto_motorcycle" depart="1481.98" departLane="best" from="-133755126#8" to="-706734275#3"/>
    <trip id="moto174" type="moto_motorcycle" depart="1490.55" departLane="best" from="-186254736#5" to="-306475946#2"/>
    <trip id="moto175" type="moto_motorcycle" depart="1499.12" departLane="best" from="288926324#5" to="-706734275#3"/>
    <trip id="moto176" type="moto_motorcycle" depart="1507.68" departLane="best" from="286438372" to="374529118#7"/>
    <trip id="moto177" type="moto_motorcycle" depart="1516.25" departLane="best" from="-236471193#0" to="-171865792#0"/>
    <trip id="moto178" type="moto_motorcycle" depart="1524.82" departLane="best" from="-133637887#0" to="158486424#5"/>
    <trip id="moto179" type="moto_motorcycle" depart="1533.38" departLane="best" from="817230302" to="-374529123#0"/>
    <trip id="moto180" type="moto_motorcycle" depart="1541.95" departLane="best" from="171902841#0" to="288926324#1"/>
    <trip id="moto181" type="moto_motorcycle" depart="1550.52" departLane="best" from="-171867130#3" to="186254736#5"/>
    <trip id="moto182" type="moto_motorcycle" depart="1559.08" departLane="best" from="171865797#2" to="-186258452"/>
    <trip id="moto183" type="moto_motorcycle" depart="1567.65" departLane="best" from="186263433#2" to="306475940#1"/>
    <trip id="moto184" type="moto_motorcycle" depart="1576.22" departLane="best" from="-171870085#0" to="171867136#4"/>
    <trip id="moto185" type="moto_motorcycle" depart="1584.78" departLane="best" from="374529112#3" to="800715314"/>
    <trip id="moto187" type="moto_motorcycle" depart="1601.91" departLane="best" from="800669878" to="-800384381"/>
    <trip id="moto188" type="moto_motorcycle" depart="1610.48" departLane="best" from="236471195#0" to="-171865779"/>
    <trip id="moto189" type="moto_motorcycle" depart="1619.05" departLane="best" from="186262687#0" to="171870085#0"/>
    <trip id="moto191" type="moto_motorcycle" depart="1636.18" departLane="best" from="374530997#1" to="374529118#1"/>
    <trip id="moto192" type="moto_motorcycle" depart="1644.75" departLane="best" from="-171865797#6" to="800669888"/>
    <trip id="moto193" type="moto_motorcycle" depart="1653.31" departLane="best" from="171902829#0" to="374529118#5"/>
    <trip id="moto194" type="moto_motorcycle" depart="1661.88" departLane="best" from="236471188#0" to="-800669888"/>
    <trip id="moto195" type="moto_motorcycle" depart="1670.45" departLane="best" from="-246989083#1" to="373896382#4"/>
    <trip id="moto196" type="moto_motorcycle" depart="1679.01" departLane="best" from="158486424#4" to="133637887#0"/>
    <trip id="moto197" type="moto_motorcycle" depart="1687.58" departLane="best" from="-800669888" to="246989083#1"/>
    <trip id="moto198" type="moto_motorcycle" depart="1696.14" departLane="best" from="646246743" to="-186276679#0"/>
    <trip id="moto199" type="moto_motorcycle" depart="1704.71" departLane="best" from="122612374#0" to="171867137#1"/>
    <trip id="moto200" type="moto_motorcycle" depart="1713.28" departLane="best" from="-706734275#3" to="-133755118#3"/>
    <trip id="moto201" type="moto_motorcycle" depart="1721.84" departLane="best" from="374532416#1" to="-171902831#2"/>
    <trip id="moto202" type="moto_motorcycle" depart="1730.41" departLane="best" from="-186254736#5" to="306475950"/>
    <trip id="moto203" type="moto_motorcycle" depart="1738.98" departLane="best" from="-373896382#2" to="646246743"/>
    <trip id="moto204" type="moto_motorcycle" depart="1747.54" departLane="best" from="186263438#0" to="-246989087#0"/>
    <trip id="moto205" type="moto_motorcycle" depart="1756.11" departLane="best" from="-122612374#4" to="800610509#3"/>
    <trip id="moto206" type="moto_motorcycle" depart="1764.68" departLane="best" from="186262687#0" to="171902839#2"/>
    <trip id="moto207" type="moto_motorcycle" depart="1773.24" departLane="best" from="133755118#3" to="306475946#4"/>
    <trip id="moto208" type="moto_motorcycle" depart="1781.81" departLane="best" from="-171865797#0" to="-186258455#0"/>
    <trip id="moto209" type="moto_motorcycle" depart="1790.37" departLane="best" from="246989098#1" to="-306475948"/>
    <trip id="moto210" type="moto_motorcycle" depart="1798.94" departLane="best" from="186263438#1" to="-246989083#1"/>
    <trip id="moto211" type="moto_motorcycle" depart="1807.51" departLane="best" from="-236471193#0" to="-171867129"/>
    <trip id="moto212" type="moto_motorcycle" depart="1816.07" departLane="best" from="-171902841#0" to="-171867128"/>
    <trip id="moto213" type="moto_motorcycle" depart="1824.64" departLane="best" from="158486424#3" to="290646812#0"/>
    <trip id="moto214" type="moto_motorcycle" depart="1833.21" departLane="best" from="133637887#1" to="245441809#0"/>
    <trip id="moto215" type="moto_motorcycle" depart="1841.77" departLane="best" from="803758026#0" to="135530186#4"/>
    <trip id="moto216" type="moto_motorcycle" depart="1850.34" departLane="best" from="-171902841#1" to="-186258459"/>
    <trip id="moto217" type="moto_motorcycle" depart="1858.91" departLane="best" from="186263433#1" to="-171867130#3"/>
    <trip id="moto218" type="moto_motorcycle" depart="1867.47" departLane="best" from="374533524#6" to="133755118#3"/>
    <trip id="moto219" type="moto_motorcycle" depart="1876.04" departLane="best" from="-171902839#0" to="-133755126#9"/>
    <trip id="moto220" type="moto_motorcycle" depart="1884.61" departLane="best" from="-158486424#5" to="171870086#0"/>
    <trip id="moto221" type="moto_motorcycle" depart="1893.17" departLane="best" from="290646812#1" to="171867136#3"/>
    <trip id="moto222" type="moto_motorcycle" depart="1901.74" departLane="best" from="306475946#3" to="-186258456"/>
    <trip id="moto223" type="moto_motorcycle" depart="1910.30" departLane="best" from="135530186#3" to="-803758026#1"/>
    <trip id="moto224" type="moto_motorcycle" depart="1918.87" departLane="best" from="-803758020" to="374533524#1"/>
    <trip id="moto225" type="moto_motorcycle" depart="1927.44" departLane="best" from="804217356#1" to="-306475941#0"/>
    <trip id="moto226" type="moto_motorcycle" depart="1936.00" departLane="best" from="246989092#0" to="800610509#3"/>
    <trip id="moto227" type="moto_motorcycle" depart="1944.57" departLane="best" from="-186254736#3" to="-186254736#5"/>
    <trip id="moto228" type="moto_motorcycle" depart="1953.14" departLane="best" from="186254733#1" to="-171870081#0"/>
    <trip id="moto229" type="moto_motorcycle" depart="1961.70" departLane="best" from="-171870086#1" to="-158486424#5"/>
    <trip id="moto230" type="moto_motorcycle" depart="1970.27" departLane="best" from="171867131#0" to="-288926324#2"/>
    <trip id="moto231" type="moto_motorcycle" depart="1978.84" departLane="best" from="186276679#0" to="-804207581"/>
    <trip id="moto232" type="moto_motorcycle" depart="1987.40" departLane="best" from="186258462#0" to="800384383"/>
    <trip id="moto233" type="moto_motorcycle" depart="1995.97" departLane="best" from="186254733#1" to="800610495#0"/>
    <trip id="moto234" type="moto_motorcycle" depart="2004.53" departLane="best" from="-800610511" to="171865789"/>
    <trip id="moto235" type="moto_motorcycle" depart="2013.10" departLane="best" from="171902839#3" to="706734276#4"/>
    <trip id="moto236" type="moto_motorcycle" depart="2021.67" departLane="best" from="374529118#4" to="-158486424#3"/>
    <trip id="moto237" type="moto_motorcycle" depart="2030.23" departLane="best" from="-171870084#2" to="-306475941#1"/>
    <trip id="moto238" type="moto_motorcycle" depart="2038.80" departLane="best" from="-288926324#0" to="-171867130#1"/>
    <trip id="moto239" type="moto_motorcycle" depart="2047.37" departLane="best" from="186258462#1" to="186263438#0"/>
    <trip id="moto240" type="moto_motorcycle" depart="2055.93" departLane="best" from="800610509#0" to="133755126#12"/>
    <trip id="moto241" type="moto_motorcycle" depart="2064.50" departLane="best" from="-133755126#14" to="-800669878"/>
    <trip id="moto242" type="moto_motorcycle" depart="2073.07" departLane="best" from="-171865792#8" to="800715313"/>
    <trip id="moto243" type="moto_motorcycle" depart="2081.63" departLane="best" from="800610512" to="817230302"/>
    <trip id="moto244" type="moto_motorcycle" depart="2090.20" departLane="best" from="122612374#4" to="171902841#0"/>
    <trip id="moto245" type="moto_motorcycle" depart="2098.76" departLane="best" from="800384378" to="-171902831#2"/>
    <trip id="moto246" type="moto_motorcycle" depart="2107.33" departLane="best" from="171867129" to="171902829#0"/>
    <trip id="moto247" type="moto_motorcycle" depart="2115.90" departLane="best" from="-373896382#7" to="-306475949"/>
    <trip id="moto248" type="moto_motorcycle" depart="2124.46" departLane="best" from="186254736#5" to="374533523#0"/>
    <trip id="moto249" type="moto_motorcycle" depart="2133.03" departLane="best" from="-288926324#0" to="800610509#1"/>
    <trip id="moto250" type="moto_motorcycle" depart="2141.60" departLane="best" from="374529112#0" to="171865792#2"/>
    <trip id="moto251" type="moto_motorcycle" depart="2150.16" departLane="best" from="-804207581" to="-306475942#2"/>
    <trip id="moto252" type="moto_motorcycle" depart="2158.73" departLane="best" from="804207591#5" to="186250796"/>
    <trip id="moto253" type="moto_motorcycle" depart="2167.30" departLane="best" from="171865787" to="-800610497"/>
    <trip id="moto254" type="moto_motorcycle" depart="2175.86" departLane="best" from="-171902839#2" to="-706318004#1"/>
    <trip id="moto255" type="moto_motorcycle" depart="2184.43" departLane="best" from="171865792#10" to="800384387#1"/>
    <trip id="moto256" type="moto_motorcycle" depart="2192.99" departLane="best" from="-800715314" to="186263433#2"/>
    <trip id="moto257" type="moto_motorcycle" depart="2201.56" departLane="best" from="-171867130#0" to="803758023"/>
    <trip id="moto258" type="moto_motorcycle" depart="2210.13" departLane="best" from="171867137#0" to="-186263433#2"/>
    <trip id="moto259" type="moto_motorcycle" depart="2218.69" departLane="best" from="171865792#3" to="-171865797#0"/>