<?xml version="1.0" encoding="UTF-8"?>

<!-- generated on 02/16/21 18:14:19 by Eclipse SUMO duarouter Version 1.7.0
<configuration xmlns:xsi="http://www.w3.org/2001/XMLSchema-instance" xsi:noNamespaceSchemaLocation="http://sumo.dlr.de/xsd/duarouterConfiguration.xsd">

    <input>
        <net-file value="C:\Users\Dell\Sumo\2021-02-16-18-14-10\osm.net.xml"/>
        <route-files value="C:\Users\Dell\Sumo\2021-02-16-18-14-10\osm.truck.trips.xml"/>
    </input>

    <output>
        <output-file value="C:\Users\Dell\Sumo\2021-02-16-18-14-10\osm.truck.trips.xml.tmp"/>
        <write-trips value="true"/>
    </output>

    <time>
        <begin value="0"/>
        <end value="3600"/>
    </time>

    <report>
        <no-warnings value="true"/>
        <ignore-errors value="true"/>
        <no-step-log value="true"/>
    </report>

</configuration>
-->

<routes xmlns:xsi="http://www.w3.org/2001/XMLSchema-instance" xsi:noNamespaceSchemaLocation="http://sumo.dlr.de/xsd/routes_file.xsd">
    <vType id="truck_truck" vClass="truck"/>
    <trip id="truck0" type="truck_truck" depart="0.00" departLane="best" from="171902837" to="-133755118#1"/>
    <trip id="truck1" type="truck_truck" depart="4.29" departLane="best" from="-246989092#0" to="-186258455#1"/>
    <trip id="truck2" type="truck_truck" depart="8.59" departLane="best" from="246989092#0" to="186258455#0"/>
    <trip id="truck3" type="truck_truck" depart="12.88" departLane="best" from="706734275#0" to="-171865792#3"/>
    <trip id="truck4" type="truck_truck" depart="17.17" departLane="best" from="-133755118#2" to="-186250796"/>
    <trip id="truck5" type="truck_truck" depart="21.46" departLane="best" from="171902841#1" to="171865792#0"/>
    <trip id="truck6" type="truck_truck" depart="25.76" departLane="best" from="-373896382#3" to="-171870075#1"/>
    <trip id="truck7" type="truck_truck" depart="30.05" departLane="best" from="-171865797#0" to="-171865797#10"/>
    <trip id="truck8" type="truck_truck" depart="34.34" departLane="best" from="374532416#2" to="171867136#3"/>
    <trip id="truck9" type="truck_truck" depart="38.64" departLane="best" from="158486424#5" to="803758026#1"/>
    <trip id="truck10" type="truck_truck" depart="42.93" departLane="best" from="-706734276#0" to="171865792#7"/>
    <trip id="truck11" type="truck_truck" depart="47.22" departLane="best" from="374529120#1" to="171870082"/>
    <trip id="truck12" type="truck_truck" depart="51.51" departLane="best" from="374533524#5" to="171867126#1"/>
    <trip id="truck13" type="truck_truck" depart="55.81" departLane="best" from="236471188#0" to="-133755126#5"/>
    <trip id="truck14" type="truck_truck" depart="60.10" departLane="best" from="-186258459" to="-288926324#2"/>
    <trip id="truck15" type="truck_truck" depart="64.39" departLane="best" from="-171865791" to="-186262687#0"/>
    <trip id="truck16" type="truck_truck" depart="68.68" departLane="best" from="171902831#0" to="-706318011"/>
    <trip id="truck17" type="truck_truck" depart="72.98" departLane="best" from="-706734274#1" to="-186254736#4"/>
    <trip id="truck18" type="truck_truck" depart="77.27" departLane="best" from="-246989083#0" to="800610499"/>
    <trip id="truck19" type="truck_truck" depart="81.56" departLane="best" from="171902841#0" to="171867137#1"/>
    <trip id="truck20" type="truck_truck" depart="85.86" departLane="best" from="-171870086#0" to="246989083#3"/>
    <trip id="truck21" type="truck_truck" depart="90.15" departLane="best" from="-171870084#1" to="-706734276#0"/>
    <trip id="truck23" type="truck_truck" depart="98.73" departLane="best" from="171865797#1" to="186258462#0"/>
    <trip id="truck24" type="truck_truck" depart="103.03" departLane="best" from="374530997#0" to="306475943#1"/>
    <trip id="truck26" type="truck_truck" depart="111.61" departLane="best" from="-186254736#5" to="800610509#3"/>
    <trip id="truck27" type="truck_truck" depart="115.91" departLane="best" from="646246743" to="-306475943#1"/>
    <trip id="truck28" type="truck_truck" depart="120.20" departLane="best" from="186250796" to="-800384382"/>
    <trip id="truck29" type="truck_truck" depart="124.49" departLane="best" from="-246982749" to="-236471188#0"/>
    <trip id="truck30" type="truck_truck" depart="128.78" departLane="best" from="171865797#11" to="-245441809#0"/>
    <trip id="truck31" type="truck_truck" depart="133.08" departLane="best" from="171867130#0" to="706734275#3"/>
    <trip id="truck32" type="truck_truck" depart="137.37" departLane="best" from="-800384387#0" to="-186258453"/>
    <trip id="truck33" type="truck_truck" depart="141.66" departLane="best" from="809425538" to="133755126#6"/>
    <trip id="truck34" type="truck_truck" depart="145.95" departLane="best" from="-171865792#8" to="-133755126#6"/>
    <trip id="truck35" type="truck_truck" depart="150.25" departLane="best" from="-171865797#8" to="171870086#0"/>
    <trip id="truck36" type="truck_truck" depart="154.54" departLane="best" from="306475949" to="-800610510"/>
    <trip id="truck37" type="truck_truck" depart="158.83" departLane="best" from="-135530186#6" to="-706734276#2"/>
    <trip id="truck39" type="truck_truck" depart="167.42" departLane="best" from="803758024" to="374533524#4"/>
    <trip id="truck40" type="truck_truck" depart="171.71" departLane="best" from="186258456" to="158486424#5"/>
    <trip id="truck41" type="truck_truck" depart="176.00" departLane="best" from="-246989083#0" to="171902839#0"/>
    <trip id="truck43" type="truck_truck" depart="184.59" departLane="best" from="646246743" to="-245441809#1"/>
    <trip id="truck44" type="truck_truck" depart="188.88" departLane="best" from="133755126#13" to="-171902831#0"/>
    <trip id="truck45" type="truck_truck" depart="193.18" departLane="best" from="800384379" to="374533525#3"/>
    <trip id="truck48" type="truck_truck" depart="206.05" departLane="best" from="-133637887#0" to="800610495#0"/>
    <trip id="truck49" type="truck_truck" depart="210.35" departLane="best" from="706318004#0" to="374529120#2"/>
    <trip id="truck51" type="truck_truck" depart="218.93" departLane="best" from="706318004#0" to="800610512"/>
    <trip id="truck52" type="truck_truck" depart="223.22" departLane="best" from="-171865792#2" to="133755118#1"/>
    <trip id="truck53" type="truck_truck" depart="227.52" departLane="best" from="-158486424#2" to="290646812#1"/>
    <trip id="truck55" type="truck_truck" depart="236.10" departLane="best" from="133637883#2" to="171865792#3"/>
    <trip id="truck56" type="truck_truck" depart="240.40" departLane="best" from="-800610511" to="-186254736#5"/>
    <trip id="truck57" type="truck_truck" depart="244.69" departLane="best" from="171865787" to="246989083#3"/>
    <trip id="truck59" type="truck_truck" depart="253.27" departLane="best" from="-171867129" to="-186258455#2"/>
    <trip id="truck60" type="truck_truck" depart="257.57" departLane="best" from="-373896382#1" to="171867130#2"/>
    <trip id="truck61" type="truck_truck" depart="261.86" departLane="best" from="-158486424#3" to="171870086#2"/>
    <trip id="truck62" type="truck_truck" depart="266.15" departLane="best" from="374533524#3" to="-158486424#3"/>
    <trip id="truck63" type="truck_truck" depart="270.45" departLane="best" from="-186263433#2" to="186254736#6"/>
    <trip id="truck64" type="truck_truck" depart="274.74" departLane="best" from="-186254736#7" to="-171867131#2"/>
    <trip id="truck65" type="truck_truck" depart="279.03" departLane="best" from="133637883#0" to="306475946#0"/>
    <trip id="truck66" type="truck_truck" depart="283.32" departLane="best" from="373896382#8" to="-171902839#4"/>
    <trip id="truck67" type="truck_truck" depart="287.62" departLane="best" from="-171865797#10" to="-800669886"/>
    <trip id="truck68" type="truck_truck" depart="291.91" departLane="best" from="246989083#3" to="186258452"/>
    <trip id="truck69" type="truck_truck" depart="296.20" departLane="best" departSpeed="max" from="804207591#0" to="-171865797#11"/>
    <trip id="truck70" type="truck_truck" depart="300.49" departLane="best" from="-800384388" to="-373896382#2"/>
    <trip id="truck71" type="truck_truck" depart="304.79" departLane="best" from="374533524#5" to="-236471188#1"/>
    <trip id="truck72" type="truck_truck" depart="309.08" departLane="best" from="-171902839#4" to="-803758026#1"/>
    <trip id="truck73" type="truck_truck" depart="313.37" departLane="best" from="-800610510" to="-246989098#0"/>
    <trip id="truck74" type="truck_truck" depart="317.67" departLane="best" from="-236471193#0" to="800384387#1"/>
    <trip id="truck75" type="truck_truck" depart="321.96" departLane="best" from="-803758021" to="374533524#5"/>
    <trip id="truck76" type="truck_truck" depart="326.25" departLane="best" from="171865792#5" to="-133755126#8"/>
    <trip id="truck77" type="truck_truck" depart="330.54" departLane="best" from="817230302" to="374529122#0"/>
    <trip id="truck78" type="truck_truck" depart="334.84" departLane="best" from="803758023" to="800384389"/>
    <trip id="truck79" type="truck_truck" depart="339.13" departLane="best" from="374532416#3" to="-171870084#3"/>
    <trip id="truck80" type="truck_truck" depart="343.42" departLane="best" from="-800384387#1" to="-135530186#3"/>
    <trip id="truck81" type="truck_truck" depart="347.72" departLane="best" from="-706734276#0" to="804217356#4"/>
    <trip id="truck82" type="truck_truck" depart="352.01" departLane="best" from="-246982749" to="306475946#0"/>
    <trip id="truck83" type="truck_truck" depart="356.30" departLane="best" from="-809425538" to="-800610511"/>
    <trip id="truck84" type="truck_truck" depart="360.59" departLane="best" from="800715313" to="804217356#9"/>
    <trip id="truck85" type="truck_truck" depart="364.89" departLane="best" from="171865797#0" to="245441027#2"/>
    <trip id="truck86" type="truck_truck" depart="369.18" departLane="best" from="-171870075#1" to="-290646812#0"/>
    <trip id="truck87" type="truck_truck" depart="373.47" departLane="best" from="803758023" to="171867127#1"/>
    <trip id="truck88" type="truck_truck" depart="377.77" departLane="best" from="171865789" to="286438372"/>
    <trip id="truck89" type="truck_truck" depart="382.06" departLane="best" from="-135530186#2" to="171867130#0"/>
    <trip id="truck90" type="truck_truck" depart="386.35" departLane="best" from="-171865791" to="-171902839#1"/>
    <trip id="truck91" type="truck_truck" depart="390.64" departLane="best" from="171867132" to="186258453"/>
    <trip id="truck92" type="truck_truck" depart="394.94" departLane="best" from="171867131#2" to="171870084#1"/>
    <trip id="truck93" type="truck_truck" depart="399.23" departLane="best" from="-800610509#1" to="171867129"/>
    <trip id="truck94" type="truck_truck" depart="403.52" departLane="best" from="135530186#4" to="800610498#1"/>
    <trip id="truck95" type="truck_truck" depart="407.81" departLane="best" from="-186254736#0" to="245441027#1"/>
    <trip id="truck96" type="truck_truck" depart="412.11" departLane="best" from="-186263433#2" to="-800384382"/>
    <trip id="truck97" type="truck_truck" depart="416.40" departLane="best" from="186258449" to="-306475940#0"/>
    <trip id="truck99" type="truck_truck" depart="424.99" departLane="best" from="-158486424#4" to="122612356#0"/>
    <trip id="truck100" type="truck_truck" depart="429.28" departLane="best" from="817230302" to="804217356#9"/>
    <trip id="truck101" type="truck_truck" depart="433.57" departLane="best" from="-158486424#4" to="-186254736#6"/>
    <trip id="truck102" type="truck_truck" depart="437.86" departLane="best" from="-246982749" to="800610498#0"/>
    <trip id="truck103" type="truck_truck" depart="442.16" departLane="best" from="-706734274#0" to="-171870081#0"/>
    <trip id="truck104" type="truck_truck" depart="446.45" departLane="best" from="374529120#3" to="236471188#0"/>
    <trip id="truck105" type="truck_truck" depart="450.74" departLane="best" from="171870075#0" to="804217356#6"/>
    <trip id="truck106" type="truck_truck" depart="455.04" departLane="best" from="186250796" to="-122612374#2"/>
    <trip id="truck107" type="truck_truck" depart="459.33" departLane="best" from="374529118#1" to="-290646812#1"/>
    <trip id="truck108" type="truck_truck" depart="463.62" departLane="best" from="-246989083#3" to="171867136#4"/>
    <trip id="truck109" type="truck_truck" depart="467.91" departLane="best" from="245441027#1" to="-186254734"/>
    <trip id="truck110" type="truck_truck" depart="472.21" departLane="best" from="171902829#1" to="-245441809#1"/>
    <trip id="truck111" type="truck_truck" depart="476.50" departLane="best" from="133755118#3" to="715685826#0"/>
    <trip id="truck112" type="truck_truck" depart="480.79" departLane="best" from="374532416#1" to="-171865792#8"/>
    <trip id="truck113" type="truck_truck" depart="485.08" departLane="best" from="-122612374#0" to="306475942#1"/>
    <trip id="truck114" type="truck_truck" depart="489.38" departLane="best" from="171902831#2" to="-245441809#0"/>
    <trip id="truck115" type="truck_truck" depart="493.67" departLane="best" from="-800669875" to="-122612374#4"/>
    <trip id="truck116" type="truck_truck" depart="497.96" departLane="best" from="-171865779" to="706318010"/>
    <trip id="truck117" type="truck_truck" depart="502.26" departLane="best" from="706734276#4" to="171865792#10"/>
    <trip id="truck118" type="truck_truck" depart="506.55" departLane="best" from="374529120#4" to="171867129"/>
    <trip id="truck119" type="truck_truck" depart="510.84" departLane="best" from="-171867137#0" to="-171867130#3"/>
    <trip id="truck121" type="truck_truck" depart="519.43" departLane="best" from="373896382#0" to="374533524#4"/>
    <trip id="truck122" type="truck_truck" depart="523.72" departLane="best" from="706734276#1" to="-186254736#4"/>
    <trip id="truck123" type="truck_truck" depart="528.01" departLane="best" from="374533525#0" to="804207581"/>
    <trip id="truck124" type="truck_truck" depart="532.31" departLane="best" from="-133755118#1" to="246989092#0"/>
    <trip id="truck125" type="truck_truck" depart="536.60" departLane="best" from="373896382#4" to="374533524#6"/>
    <trip id="truck126" type="truck_truck" depart="540.89" departLane="best" from="374529112#1" to="-246989083#0"/>
    <trip id="truck127" type="truck_truck" depart="545.18" departLane="best" from="306475946#3" to="-171865797#7"/>
    <trip id="truck128" type="truck_truck" depart="549.48" departLane="best" from="-186258455#1" to="374529115"/>
    <trip id="truck129" type="truck_truck" depart="553.77" departLane="best" from="122612356#1" to="-306475941#1"/>
    <trip id="truck130" type="truck_truck" depart="558.06" departLane="best" from="306475951" to="-186258459"/>
    <trip id="truck131" type="truck_truck" depart="562.35" departLane="best" from="-133755118#0" to="-171902841#1"/>
    <trip id="truck132" type="truck_truck" depart="566.65" departLane="best" from="171902839#1" to="-800384387#0"/>
    <trip id="truck133" type="truck_truck" depart="570.94" departLane="best" departSpeed="max" from="804207591#0" to="158486424#5"/>
    <trip id="truck134" type="truck_truck" depart="575.23" departLane="best" from="800610509#0" to="-171867127#0"/>
    <trip id="truck135" type="truck_truck" depart="579.53" departLane="best" from="803758024" to="-171902829#1"/>
    <trip id="truck136" type="truck_truck" depart="583.82" departLane="best" from="803758019" to="-246982749"/>
    <trip id="truck137" type="truck_truck" depart="588.11" departLane="best" from="-171865797#7" to="-800715313"/>
    <trip id="truck138" type="truck_truck" depart="592.40" departLane="best" from="246989083#2" to="-306475943#0"/>
    <trip id="truck139" type="truck_truck" depart="596.70" departLane="best" from="171867137#0" to="133755126#7"/>
    <trip id="truck140" type="truck_truck" depart="600.99" departLane="best" from="-715685826#0" to="171867126#1"/>
    <trip id="truck141" type="truck_truck" depart="605.28" departLane="best" from="171865779" to="245441809#0"/>
    <trip id="truck142" type="truck_truck" depart="609.58" departLane="best" from="286437949" to="186254736#7"/>
    <trip id="truck143" type="truck_truck" depart="613.87" departLane="best" from="-706318011" to="-158486424#2"/>
    <trip id="truck144" type="truck_truck" depart="618.16" departLane="best" from="186254736#3" to="-306475949"/>
    <trip id="truck147" type="truck_truck" depart="631.04" departLane="best" from="-171867130#3" to="-800610509#2"/>
    <trip id="truck148" type="truck_truck" depart="635.33" departLane="best" from="706734276#4" to="171870081#0"/>
    <trip id="truck150" type="truck_truck" depart="643.92" departLane="best" from="-122612356#0" to="-288926324#0"/>
    <trip id="truck151" type="truck_truck" depart="648.21" departLane="best" from="186250796" to="122612374#2"/>
    <trip id="truck152" type="truck_truck" depart="652.50" departLane="best" from="-803758021" to="-186254736#6"/>
    <trip id="truck153" type="truck_truck" depart="656.80" departLane="best" from="133637883#0" to="706734276#3"/>
    <trip id="truck154" type="truck_truck" depart="661.09" departLane="best" from="373896382#0" to="-171870085#1"/>
    <trip id="truck155" type="truck_truck" depart="665.38" departLane="best" from="-171865792#2" to="135530186#0"/>
    <trip id="truck156" type="truck_truck" depart="669.67" departLane="best" from="171902829#0" to="-373896382#0"/>
    <trip id="truck157" type="truck_truck" depart="673.97" departLane="best" from="374529118#2" to="288926324#1"/>
    <trip id="truck158" type="truck_truck" depart="678.26" departLane="best" from="-186250796" to="-133755118#1"/>
    <trip id="truck159" type="truck_truck" depart="682.55" departLane="best" from="-186276679#1" to="133637883#1"/>
    <trip id="truck160" type="truck_truck" depart="686.85" departLane="best" from="374532416#3" to="-158486424#4"/>
    <trip id="truck161" type="truck_truck" depart="691.14" departLane="best" from="-800610498#1" to="171870086#1"/>
    <trip id="truck162" type="truck_truck" depart="695.43" departLane="best" from="186254733#0" to="-122612374#1"/>
    <trip id="truck163" type="truck_truck" depart="699.72" departLane="best" from="288926324#1" to="306475942#0"/>
    <trip id="truck164" type="truck_truck" depart="704.02" departLane="best" from="-171902829#0" to="800715313"/>
    <trip id="truck165" type="truck_truck" depart="708.31" departLane="best" from="135530186#1" to="-133755126#8"/>
    <trip id="truck166" type="truck_truck" depart="712.60" departLane="best" from="-236471193#0" to="374532416#2"/>
    <trip id="truck167" type="truck_truck" depart="716.90" departLane="best" from="-817230302" to="373896382#3"/>
    <trip id="truck168" type="truck_truck" depart="721.19" departLane="best" from="171867132" to="800669864"/>
    <trip id="truck169" type="truck_truck" depart="725.48" departLane="best" from="706734274#1" to="171870075#1"/>
    <trip id="truck170" type="truck_truck" depart="729.77" departLane="best" from="245441027#2" to="133755126#3"/>
    <trip id="truck171" type="truck_truck" depart="734.07" departLane="best" from="374529120#1" to="171865792#2"/>
    <trip id="truck172" type="truck_truck" depart="738.36" departLane="best" from="706734275#3" to="286438371#0"/>
    <trip id="truck173" type="truck_truck" depart="742.65" departLane="best" from="-236471188#1" to="171902831#2"/>
    <trip id="truck175" type="truck_truck" depart="751.24" departLane="best" from="171870085#1" to="-246989092#0"/>
    <trip id="truck176" type="truck_truck" depart="755.53" departLane="best" from="-171865787" to="-288926324#0"/>
    <trip id="truck177" type="truck_truck" depart="759.82" departLane="best" from="-246989083#3" to="-306475944#1"/>
    <trip id="truck178" type="truck_truck" depart="764.12" departLane="best" from="-186262687#0" to="186263433#1"/>
    <trip id="truck179" type="truck_truck" depart="768.41" departLane="best" from="236471188#1" to="-135530186#8"/>
    <trip id="truck180" type="truck_truck" depart="772.70" departLane="best" from="-800610495#1" to="171865791"/>
    <trip id="truck181" type="truck_truck" depart="776.99" departLane="best" from="-800610499" to="-186254736#1"/>
    <trip id="truck182" type="truck_truck" depart="781.29" departLane="best" from="171867130#0" to="186263433#2"/>
    <trip id="truck183" type="truck_truck" depart="785.58" departLane="best" from="-706734276#1" to="-122612374#1"/>
    <trip id="truck184" type="truck_truck" depart="789.87" departLane="best" from="-374530997#0" to="288926324#3"/>
    <trip id="truck185" type="truck_truck" depart="794.17" departLane="best" from="374533523#1" to="800669878"/>
    <trip id="truck186" type="truck_truck" depart="798.46" departLane="best" from="-800610509#1" to="286438372"/>
    <trip id="truck187" type="truck_truck" depart="802.75" departLane="best" from="171865792#10" to="171867136#3"/>
    <trip id="truck188" type="truck_truck" depart="807.04" departLane="best" from="-800715314" to="-133755118#4"/>
    <trip id="truck189" type="truck_truck" depart="811.34" departLane="best" from="-373896382#0" to="186258455#1"/>
    <trip id="truck190" type="truck_truck" depart="815.63" departLane="best" from="-800384389" to="-171870084#2"/>
    <trip id="truck191" type="truck_truck" depart="819.92" departLane="best" from="171870084#3" to="-133755118#2"/>
    <trip id="truck192" type="truck_truck" depart="824.21" departLane="best" from="-133755118#2" to="171902839#2"/>
    <trip id="truck193" type="truck_truck" depart="828.51" departLane="best" from="-133755126#8" to="-706734276#0"/>
    <trip id="truck195" type="truck_truck" depart="837.09" departLane="best" from="288926324#2" to="374529120#2"/>
    <trip id="truck196" type="truck_truck" depart="841.39" departLane="best" from="-236471195#0" to="-171865792#0"/>
    <trip id="truck197" type="truck_truck" depart="845.68" departLane="best" from="-133637887#0" to="171865787"/>
    <trip id="truck198" type="truck_truck" depart="849.97" departLane="best" from="817230302" to="-374529123#1"/>
    <trip id="truck199" type="truck_truck" depart="854.26" departLane="best" from="171902841#1" to="306475944#1"/>
    <trip id="truck200" type="truck_truck" depart="858.56" departLane="best" from="173655926#0" to="288926324#3"/>
    <trip id="truck201" type="truck_truck" depart="862.85" departLane="best" from="800669864" to="-186250796"/>
    <trip id="truck202" type="truck_truck" depart="867.14" departLane="best" from="-133637887#0" to="-171867138#1"/>
    <trip id="truck203" type="truck_truck" depart="871.44" departLane="best" from="-171867130#3" to="186254736#6"/>
    <trip id="truck204" type="truck_truck" depart="875.73" departLane="best" from="171865797#3" to="-186258452"/>
    <trip id="truck205" type="truck_truck" depart="880.02" departLane="best" from="186263438#1" to="306475941#1"/>
    <trip id="truck206" type="truck_truck" depart="884.31" departLane="best" from="-171870085#0" to="171867137#0"/>
    <trip id="truck207" type="truck_truck" depart="888.61" departLane="best" from="286438372" to="-171867126#1"/>
    <trip id="truck208" type="truck_truck" depart="892.90" departLane="best" from="-171865797#7" to="-133755118#2"/>
    <trip id="truck210" type="truck_truck" depart="901.48" departLane="best" from="245441027#0" to="-171865779"/>
    <trip id="truck211" type="truck_truck" depart="905.78" departLane="best" from="186262687#3" to="171870086#0"/>
    <trip id="truck212" type="truck_truck" depart="910.07" departLane="best" from="-171865797#3" to="306475942#2"/>
    <trip id="truck213" type="truck_truck" depart="914.36" departLane="best" from="374532416#4" to="171867136#1"/>
    <trip id="truck214" type="truck_truck" depart="918.66" departLane="best" from="-171867129" to="804217356#3"/>
    <trip id="truck215" type="truck_truck" depart="922.95" departLane="best" from="133755126#4" to="-373896382#3"/>
    <trip id="truck216" type="truck_truck" depart="927.24" departLane="best" from="374532416#3" to="374529118#4"/>
    <trip id="truck217" type="truck_truck" depart="931.53" departLane="best" from="-171865797#6" to="803758018"/>
    <trip id="truck218" type="truck_truck" depart="935.83" departLane="best" from="171902831#0" to="374529120#0"/>
    <trip id="truck219" type="truck_truck" depart="940.12" departLane="best" from="246989090" to="803758021"/>
    <trip id="truck220" type="truck_truck" depart="944.41" departLane="best" from="171865779" to="133755118#0"/>
    <trip id="truck221" type="truck_truck" depart="948.71" departLane="best" from="-800715314" to="246989087#0"/>
    <trip id="truck222" type="truck_truck" depart="953.00" departLane="best" from="-246989083#1" to="374533523#0"/>
    <trip id="truck223" type="truck_truck" depart="957.29" departLane="best" from="374529120#1" to="-171865792#3"/>
    <trip id="truck224" type="truck_truck" depart="961.58" departLane="best" from="-706734276#0" to="-133755118#3"/>
    <trip id="truck225" type="truck_truck" depart="965.88" departLane="best" from="374532416#4" to="-171902837"/>
    <trip id="truck226" type="truck_truck" depart="970.17" departLane="best" from="-186254736#5" to="373896382#1"/>
    <trip id="truck227" type="truck_truck" depart="974.46" departLane="best" from="-373896382#3" to="706318004#1"/>
    <trip id="truck228" type="truck_truck" depart="978.75" departLane="best" from="186276679#0" to="-246989092#1"/>
    <trip id="truck229" type="truck_truck" depart="983.05" departLane="best" from="-122612374#4" to="800669862"/>
    <trip id="truck230" type="truck_truck" depart="987.34" departLane="best" from="-171865792#2" to="245441809#0"/>
    <trip id="truck231" type="truck_truck" depart="991.63" departLane="best" from="133755118#3" to="290646812#0"/>
    <trip id="truck232" type="truck_truck" depart="995.93" departLane="best" from="133755118#4" to="306475950"/>
    <trip id="truck233" type="truck_truck" depart="1000.22" departLane="best" from="-171865797#0" to="-186258455#0"/>
    <trip id="truck234" type="truck_truck" depart="1004.51" departLane="best" from="186262687#3" to="-306475941#1"/>
    <trip id="truck235" type="truck_truck" depart="1008.80" departLane="best" from="171867128" to="133637883#0"/>
    <trip id="truck236" type="truck_truck" depart="1013.10" departLane="best" from="158486424#1" to="-800669862"/>
    <trip id="truck237" type="truck_truck" depart="1017.39" departLane="best" from="286438371#1" to="-306475949"/>
    <trip id="truck238" type="truck_truck" depart="1021.68" departLane="best" from="186276679#1" to="-246989083#2"/>
    <trip id="truck239" type="truck_truck" depart="1025.98" departLane="best" from="-236471193#1" to="-171867129"/>
    <trip id="truck240" type="truck_truck" depart="1030.27" departLane="best" from="-171902841#0" to="-171867128"/>
    <trip id="truck241" type="truck_truck" depart="1034.56" departLane="best" from="158486424#4" to="306475940#0"/>
    <trip id="truck242" type="truck_truck" depart="1038.85" departLane="best" from="-171902839#1" to="-186258449"/>
    <trip id="truck243" type="truck_truck" depart="1043.15" departLane="best" from="133755118#0" to="246989083#0"/>
    <trip id="truck245" type="truck_truck" depart="1051.73" departLane="best" from="-286438371#1" to="-171865797#3"/>
    <trip id="truck246" type="truck_truck" depart="1056.03" departLane="best" from="-171902841#1" to="-186258459"/>
    <trip id="truck247" type="truck_truck" depart="1060.32" departLane="best" from="-171902831#0" to="-133637883#1"/>
    <trip id="truck248" type="truck_truck" depart="1064.61" departLane="best" from="158486424#3" to="-246989087#0"/>
    <trip id="truck249" type="truck_truck" depart="1068.90" departLane="best" from="803758026#1" to="171865792#7"/>
    <trip id="truck250" type="truck_truck" depart="1073.20" departLane="best" from="374533525#5" to="171865800"/>
    <trip id="truck251" type="truck_truck" depart="1077.49" departLane="best" from="-171902839#0" to="-133755126#9"/>
    <trip id="truck252" type="truck_truck" depart="1081.78" departLane="best" from="800610509#2" to="133637883#3"/>
    <trip id="truck253" type="truck_truck" depart="1086.07" departLane="best" from="374529118#4" to="-800384387#1"/>
    <trip id="truck254" type="truck_truck" depart="1090.37" departLane="best" from="-135530186#0" to="-171867137#1"/>
    <trip id="truck255" type="truck_truck" depart="1094.66" departLane="best" from="171865797#2" to="-306475941#0"/>
    <trip id="truck258" type="truck_truck" depart="1107.54" departLane="best" from="306475948" to="-186258456"/>
    <trip id="truck259" type="truck_truck" depart="1111.83" departLane="best" from="135530186#4" to="-803758027"/>
    <trip id="truck260" type="truck_truck" depart="1116.12" departLane="best" from="-803758021" to="374533524#4"/>
    <trip id="truck261" type="truck_truck" depart="1120.42" departLane="best" from="171870084#2" to="171867138#1"/>
    <trip id="truck262" type="truck_truck" depart="1124.71" departLane="best" from="246989098#1" to="800669862"/>
    <trip id="truck263" type="truck_truck" depart="1129.00" departLane="best" from="186254736#0" to="-171870081#0"/>
    <trip id="truck264" type="truck_truck" depart="1133.30" departLane="best" from="-171870086#1" to="-171865779"/>
    <trip id="truck265" type="truck_truck" depart="1137.59" departLane="best" from="-122612356#1" to="-803758027"/>
    <trip id="truck266" type="truck_truck" depart="1141.88" departLane="best" from="186276679#1" to="-804207582"/>
    <trip id="truck267" type="truck_truck" depart="1146.17" departLane="best" from="186258462#1" to="800384388"/>
    <trip id="truck268" type="truck_truck" depart="1150.47" departLane="best" from="306475946#3" to="171870085#0"/>