<?xml version="1.0" encoding="UTF-8"?>

<!-- generated on 02/16/21 18:14:20 by Eclipse SUMO duarouter Version 1.7.0
<configuration xmlns:xsi="http://www.w3.org/2001/XMLSchema-instance" xsi:noNamespaceSchemaLocation="http://sumo.dlr.de/xsd/duarouterConfiguration.xsd">

    <input>
        <net-file value="C:\Users\Dell\Sumo\2021-02-16-18-14-10\osm.net.xml"/>
        <route-files value="C:\Users\Dell\Sumo\2021-02-16-18-14-10\osm.bus.trips.xml"/>
    </input>

    <output>
        <output-file value="C:\Users\Dell\Sumo\2021-02-16-18-14-10\osm.bus.trips.xml.tmp"/>
        <write-trips value="true"/>
    </output>

    <time>
        <begin value="0"/>
        <end value="3600"/>
    </time>

    <report>
        <no-warnings value="true"/>
        <ignore-errors value="true"/>
        <no-step-log value="true"/>
    </report>

</configuration>
-->

<routes xmlns:xsi="http://www.w3.org/2001/XMLSchema-instance" xsi:noNamespaceSchemaLocation="http://sumo.dlr.de/xsd/routes_file.xsd">
    <vType id="bus_bus" vClass="bus"/>
    <trip id="bus0" type="bus_bus" depart="0.00" departLane="best" from="171902837" to="-133755118#1"/>
    <trip id="bus1" type="bus_bus" depart="8.59" departLane="best" from="-246989092#0" to="-186258455#1"/>
    <trip id="bus2" type="bus_bus" depart="17.17" departLane="best" from="246989092#0" to="186258455#0"/>
    <trip id="bus3" type="bus_bus" depart="25.76" departLane="best" from="706734275#0" to="-171865792#3"/>
    <trip id="bus4" type="bus_bus" depart="34.34" departLane="best" from="-133755118#2" to="-186250796"/>
    <trip id="bus5" type="bus_bus" depart="42.93" departLane="best" from="171902841#1" to="171865792#0"/>
    <trip id="bus6" type="bus_bus" depart="51.51" departLane="best" from="-373896382#3" to="-171870075#1"/>
    <trip id="bus7" type="bus_bus" depart="60.10" departLane="best" from="-171865797#0" to="-171865797#10"/>
    <trip id="bus8" type="bus_bus" depart="68.68" departLane="best" from="374532416#2" to="171867136#3"/>
    <trip id="bus9" type="bus_bus" depart="77.27" departLane="best" from="158486424#5" to="803758026#1"/>
    <trip id="bus10" type="bus_bus" depart="85.86" departLane="best" from="-706734276#0" to="171865792#7"/>
    <trip id="bus11" type="bus_bus" depart="94.44" departLane="best" from="374529120#1" to="171870082"/>
    <trip id="bus12" type="bus_bus" depart="103.03" departLane="best" from="374533524#5" to="171867126#1"/>
    <trip id="bus13" type="bus_bus" depart="111.61" departLane="best" from="236471188#0" to="-133755126#5"/>
    <trip id="bus14" type="bus_bus" depart="120.20" departLane="best" from="-186258459" to="-288926324#2"/>
    <trip id="bus15" type="bus_bus" depart="128.78" departLane="best" from="-171865791" to="-186262687#0"/>
    <trip id="bus16" type="bus_bus" depart="137.37" departLane="best" from="171902831#0" to="-706318011"/>
    <trip id="bus17" type="bus_bus" depart="145.95" departLane="best" from="-706734274#1" to="-186254736#4"/>
    <trip id="bus18" type="bus_bus" depart="154.54" departLane="best" from="-246989083#0" to="800610499"/>
    <trip id="bus19" type="bus_bus" depart="163.13" departLane="best" from="171902841#0" to="171867137#1"/>
    <trip id="bus20" type="bus_bus" depart="171.71" departLane="best" from="-171870086#0" to="246989083#3"/>
    <trip id="bus21" type="bus_bus" depart="180.30" departLane="best" from="-171870084#1" to="-706734276#0"/>
    <trip id="bus23" type="bus_bus" depart="197.47" departLane="best" from="171865797#1" to="186258462#0"/>
    <trip id="bus24" type="bus_bus" depart="206.05" departLane="best" from="374530997#0" to="306475943#1"/>
    <trip id="bus26" type="bus_bus" depart="223.22" departLane="best" from="-186254736#5" to="800610509#3"/>
    <trip id="bus27" type="bus_bus" depart="231.81" departLane="best" from="646246743" to="-306475943#1"/>
    <trip id="bus28" type="bus_bus" depart="240.40" departLane="best" from="186250796" to="-800384382"/>
    <trip id="bus29" type="bus_bus" depart="248.98" departLane="best" from="-246982749" to="-236471188#0"/>
    <trip id="bus30" type="bus_bus" depart="257.57" departLane="best" from="171865797#11" to="-245441809#0"/>
    <trip id="bus31" type="bus_bus" depart="266.15" departLane="best" from="171867130#0" to="706734275#3"/>
    <trip id="bus32" type="bus_bus" depart="274.74" departLane="best" from="-800384387#0" to="-186258453"/>
    <trip id="bus33" type="bus_bus" depart="283.32" departLane="best" from="809425538" to="133755126#6"/>
    <trip id="bus34" type="bus_bus" depart="291.91" departLane="best" from="-171865792#8" to="-133755126#6"/>
    <trip id="bus35" type="bus_bus" depart="300.49" departLane="best" from="-171865797#8" to="171870086#0"/>
    <trip id="bus36" type="bus_bus" depart="309.08" departLane="best" from="306475949" to="-800610510"/>
    <trip id="bus37" type="bus_bus" depart="317.67" departLane="best" from="-135530186#6" to="-706734276#2"/>
    <trip id="bus39" type="bus_bus" depart="334.84" departLane="best" from="803758024" to="374533524#4"/>
    <trip id="bus40" type="bus_bus" depart="343.42" departLane="best" from="186258456" to="158486424#5"/>
    <trip id="bus41" type="bus_bus" depart="352.01" departLane="best" from="-246989083#0" to="171902839#0"/>
    <trip id="bus43" type="bus_bus" depart="369.18" departLane="best" from="646246743" to="-245441809#1"/>
    <trip id="bus44" type="bus_bus" depart="377.77" departLane="best" from="133755126#13" to="-171902831#0"/>
    <trip id="bus45" type="bus_bus" depart="386.35" departLane="best" from="800384379" to="374533525#3"/>
    <trip id="bus48" type="bus_bus" depart="412.11" departLane="best" from="-133637887#0" to="800610495#0"/>
    <trip id="bus49" type="bus_bus" depart="420.69" departLane="best" from="706318004#0" to="374529120#2"/>
    <trip id="bus51" type="bus_bus" depart="437.86" departLane="best" from="706318004#0" to="800610512"/>
    <trip id="bus52" type="bus_bus" depart="446.45" departLane="best" from="-171865792#2" to="133755118#1"/>
    <trip id="bus53" type="bus_bus" depart="455.04" departLane="best" from="-158486424#2" to="290646812#1"/>
    <trip id="bus55" type="bus_bus" depart="472.21" departLane="best" from="133637883#2" to="171865792#3"/>
    <trip id="bus56" type="bus_bus" depart="480.79" departLane="best" from="-800610511" to="-186254736#5"/>
    <trip id="bus57" type="bus_bus" depart="489.38" departLane="best" from="171865787" to="246989083#3"/>
    <trip id="bus59" type="bus_bus" depart="506.55" departLane="best" from="-171867129" to="-186258455#2"/>
    <trip id="bus60" type="bus_bus" depart="515.13" departLane="best" from="-373896382#1" to="171867130#2"/>
    <trip id="bus61" type="bus_bus" depart="523.72" departLane="best" from="-158486424#3" to="171870086#2"/>
    <trip id="bus62" type="bus_bus" depart="532.31" departLane="best" from="374533524#3" to="-158486424#3"/>
    <trip id="bus63" type="bus_bus" depart="540.89" departLane="best" from="-186263433#2" to="186254736#6"/>
    <trip id="bus64" type="bus_bus" depart="549.48" departLane="best" from="-186254736#7" to="-171867131#2"/>
    <trip id="bus65" type="bus_bus" depart="558.06" departLane="best" from="133637883#0" to="306475946#0"/>
    <trip id="bus66" type="bus_bus" depart="566.65" departLane="best" from="373896382#8" to="-171902839#4"/>
    <trip id="bus67" type="bus_bus" depart="575.23" departLane="best" from="-171865797#10" to="-800669886"/>
    <trip id="bus68" type="bus_bus" depart="583.82" departLane="best" from="246989083#3" to="186258452"/>
    <trip id="bus69" type="bus_bus" depart="592.40" departLane="best" departSpeed="max" from="804207591#0" to="-171865797#11"/>
    <trip id="bus70" type="bus_bus" depart="600.99" departLane="best" from="-800384388" to="-373896382#2"/>
    <trip id="bus71" type="bus_bus" depart="609.58" departLane="best" from="374533524#5" to="-236471188#1"/>
    <trip id="bus72" type="bus_bus" depart="618.16" departLane="best" from="-171902839#4" to="-803758026#1"/>
    <trip id="bus73" type="bus_bus" depart="626.75" departLane="best" from="-800610510" to="-246989098#0"/>
    <trip id="bus74" type="bus_bus" depart="635.33" departLane="best" from="-236471193#0" to="800384387#1"/>
    <trip id="bus75" type="bus_bus" depart="643.92" departLane="best" from="-803758021" to="374533524#5"/>
    <trip id="bus76" type="bus_bus" depart="652.50" departLane="best" from="171865792#5" to="-133755126#8"/>
    <trip id="bus77" type="bus_bus" depart="661.09" departLane="best" from="817230302" to="374529122#0"/>
    <trip id="bus78" type="bus_bus" depart="669.67" departLane="best" from="803758023" to="800384389"/>
    <trip id="bus79" type="bus_bus" depart="678.26" departLane="best" from="374532416#3" to="-171870084#3"/>
    <trip id="bus80" type="bus_bus" depart="686.85" departLane="best" from="-800384387#1" to="-135530186#3"/>
    <trip id="bus81" type="bus_bus" depart="695.43" departLane="best" from="-706734276#0" to="804217356#4"/>
    <trip id="bus82" type="bus_bus" depart="704.02" departLane="best" from="-246982749" to="306475946#0"/>
    <trip id="bus83" type="bus_bus" depart="712.60" departLane="best" from="-809425538" to="-800610511"/>
    <trip id="bus84" type="bus_bus" depart="721.19" departLane="best" from="800715313" to="804217356#9"/>
    <trip id="bus85" type="bus_bus" depart="729.77" departLane="best" from="171865797#0" to="245441027#2"/>
    <trip id="bus86" type="bus_bus" depart="738.36" departLane="best" from="-171870075#1" to="-290646812#0"/>
    <trip id="bus87" type="bus_bus" depart="746.94" departLane="best" from="803758023" to="171867127#1"/>
    <trip id="bus88" type="bus_bus" depart="755.53" departLane="best" from="171865789" to="286438372"/>
    <trip id="bus89" type="bus_bus" depart="764.12" departLane="best" from="-135530186#2" to="171867130#0"/>
    <trip id="bus90" type="bus_bus" depart="772.70" departLane="best" from="-171865791" to="-171902839#1"/>
    <trip id="bus91" type="bus_bus" depart="781.29" departLane="best" from="171867132" to="186258453"/>
    <trip id="bus92" type="bus_bus" depart="789.87" departLane="best" from="171867131#2" to="171870084#1"/>
    <trip id="bus93" type="bus_bus" depart="798.46" departLane="best" from="-800610509#1" to="171867129"/>
    <trip id="bus94" type="bus_bus" depart="807.04" departLane="best" from="135530186#4" to="800610498#1"/>
    <trip id="bus95" type="bus_bus" depart="815.63" departLane="best" from="-186254736#0" to="245441027#1"/>
    <trip id="bus96" type="bus_bus" depart="824.21" departLane="best" from="-186263433#2" to="-800384382"/>
    <trip id="bus97" type="bus_bus" depart="832.80" departLane="best" from="186258449" to="-306475940#0"/>
    <trip id="bus99" type="bus_bus" depart="849.97" departLane="best" from="-158486424#4" to="122612356#0"/>
    <trip id="bus100" type="bus_bus" depart="858.56" departLane="best" from="817230302" to="804217356#9"/>
    <trip id="bus101" type="bus_bus" depart="867.14" departLane="best" from="-158486424#4" to="-186254736#6"/>
    <trip id="bus102" type="bus_bus" depart="875.73" departLane="best" from="-246982749" to="800610498#0"/>
    <trip id="bus103" type="bus_bus" depart="884.31" departLane="best" from="-706734274#0" to="-171870081#0"/>
    <trip id="bus104" type="bus_bus" depart="892.90" departLane="best" from="374529120#3" to="236471188#0"/>
    <trip id="bus105" type="bus_bus" depart="901.48" departLane="best" from="171870075#0" to="804217356#6"/>
    <trip id="bus106" type="bus_bus" depart="910.07" departLane="best" from="186250796" to="-122612374#2"/>
    <trip id="bus107" type="bus_bus" depart="918.66" departLane="best" from="374529118#1" to="-290646812#1"/>
    <trip id="bus108" type="bus_bus" depart="927.24" departLane="best" from="-246989083#3" to="171867136#4"/>
    <trip id="bus109" type="bus_bus" depart="935.83" departLane="best" from="245441027#1" to="-186254734"/>
    <trip id="bus110" type="bus_bus" depart="944.41" departLane="best" from="171902829#1" to="-245441809#1"/>
    <trip id="bus111" type="bus_bus" depart="953.00" departLane="best" from="133755118#3" to="715685826#0"/>
    <trip id="bus112" type="bus_bus" depart="961.58" departLane="best" from="374532416#1" to="-171865792#8"/>
    <trip id="bus113" type="bus_bus" depart="970.17" departLane="best" from="-122612374#0" to="306475942#1"/>
    <trip id="bus114" type="bus_bus" depart="978.75" departLane="best" from="171902831#2" to="-245441809#0"/>
    <trip id="bus115" type="bus_bus" depart="987.34" departLane="best" from="-800669875" to="-122612374#4"/>
    <trip id="bus116" type="bus_bus" depart="995.93" departLane="best" from="-171865779" to="706318010"/>
    <trip id="bus117" type="bus_bus" depart="1004.51" departLane="best" from="706734276#4" to="171865792#10"/>
    <trip id="bus118" type="bus_bus" depart="1013.10" departLane="best" from="374529120#4" to="171867129"/>
    <trip id="bus119" type="bus_bus" depart="1021.68" departLane="best" from="-171867137#0" to="-171867130#3"/>
    <trip id="bus121" type="bus_bus" depart="1038.85" departLane="best" from="373896382#0" to="374533524#4"/>
    <trip id="bus122" type="bus_bus" depart="1047.44" departLane="best" from="706734276#1" to="-186254736#4"/>
    <trip id="bus123" type="bus_bus" depart="1056.03" departLane="best" from="374533525#0" to="804207581"/>
    <trip id="bus124" type="bus_bus" depart="1064.61" departLane="best" from="-133755118#1" to="246989092#0"/>
    <trip id="bus125" type="bus_bus" depart="1073.20" departLane="best" from="373896382#4" to="374533524#6"/>
    <trip id="bus126" type="bus_bus" depart="1081.78" departLane="best" from="374529112#1" to="-246989083#0"/>
    <trip id="bus127" type="bus_bus" depart="1090.37" departLane="best" from="306475946#3" to="-171865797#7"/>
    <trip id="bus128" type="bus_bus" depart="1098.95" departLane="best" from="-186258455#1" to="374529115"/>
    <trip id="bus129" type="bus_bus" depart="1107.54" departLane="best" from="122612356#1" to="-306475941#1"/>
    <trip id="bus130" type="bus_bus" depart="1116.12" departLane="best" from="306475951" to="-186258459"/>
    <trip id="bus131" type="bus_bus" depart="1124.71" departLane="best" from="-133755118#0" to="-171902841#1"/>
    <trip id="bus132" type="bus_bus" depart="1133.30" departLane="best" from="171902839#1" to="-800384387#0"/>
    <trip id="bus133" type="bus_bus" depart="1141.88" departLane="best" departSpeed="max" from="804207591#0" to="158486424#5"/>
    <trip id="bus134" type="bus_bus" depart="1150.47" departLane="best" from="800610509#0" to="-171867127#0"/>
    <trip id="bus135" type="bus_bus" depart="1159.05" departLane="best" from="803758024" to="-171902829#1"/>
    <trip id="bus136" type="bus_bus" depart="1167.64" departLane="best" from="803758019" to="-246982749"/>
    <trip id="bus137" type="bus_bus" depart="1176.22" departLane="best" from="-171865797#7" to="-800715313"/>
    <trip id="bus138" type="bus_bus" depart="1184.81" departLane="best" from="246989083#2" to="-306475943#0"/>
    <trip id="bus139" type="bus_bus" depart="1193.39" departLane="best" from="171867137#0" to="133755126#7"/>
    <trip id="bus140" type="bus_bus" depart="1201.98" departLane="best" from="-715685826#0" to="171867126#1"/>
    <trip id="bus141" type="bus_bus" depart="1210.57" departLane="best" from="171865779" to="245441809#0"/>
    <trip id="bus142" type="bus_bus" depart="1219.15" departLane="best" from="286437949" to="186254736#7"/>
    <trip id="bus143" type="bus_bus" depart="1227.74" departLane="best" from="-706318011" to="-158486424#2"/>
    <trip id="bus144" type="bus_bus" depart="1236.32" departLane="best" from="186254736#3" to="-306475949"/>
    <trip id="bus147" type="bus_bus" depart="1262.08" departLane="best" from="-171867130#3" to="-800610509#2"/>
    <trip id="bus148" type="bus_bus" depart="1270.66" departLane="best" from="706734276#4" to="171870081#0"/>
    <trip id="bus150" type="bus_bus" depart="1287.84" departLane="best" from="-122612356#0" to="-288926324#0"/>
    <trip id="bus151" type="bus_bus" depart="1296.42" departLane="best" from="186250796" to="122612374#2"/>
    <trip id="bus152" type="bus_bus" depart="1305.01" departLane="best" from="-803758021" to="-186254736#6"/>
    <trip id="bus153" type="bus_bus" depart="1313.59" departLane="best" from="133637883#0" to="706734276#3"/>
    <trip id="bus154" type="bus_bus" depart="1322.18" departLane="best" from="373896382#0" to="-171870085#1"/>
    <trip id="bus155" type="bus_bus" depart="1330.76" departLane="best" from="-171865792#2" to="135530186#0"/>
    <trip id="bus156" type="bus_bus" depart="1339.35" departLane="best" from="171902829#0" to="-373896382#0"/>
    <trip id="bus157" type="bus_bus" depart="1347.93" departLane="best" from="374529118#2" to="288926324#1"/>
    <trip id="bus158" type="bus_bus" depart="1356.52" departLane="best" from="-186250796" to="-133755118#1"/>
    <trip id="bus159" type="bus_bus" depart="1365.11" departLane="best" from="-186276679#1" to="133637883#1"/>
    <trip id="bus160" type="bus_bus" depart="1373.69" departLane="best" from="374532416#3" to="-158486424#4"/>
    <trip id="bus161" type="bus_bus" depart="1382.28" departLane="best" from="-800610498#1" to="171870086#1"/>
    <trip id="bus162" type="bus_bus" depart="1390.86" departLane="best" from="186254733#0" to="-122612374#1"/>
    <trip id="bus163" type="bus_bus" depart="1399.45" departLane="best" from="288926324#1" to="306475942#0"/>
    <trip id="bus164" type="bus_bus" depart="1408.03" departLane="best" from="-171902829#0" to="800715313"/>
    <trip id="bus165" type="bus_bus" depart="1416.62" departLane="best" from="135530186#1" to="-133755126#8"/>
    <trip id="bus166" type="bus_bus" depart="1425.20" departLane="best" from="-236471193#0" to="374532416#2"/>
    <trip id="bus167" type="bus_bus" depart="1433.79" departLane="best" from="-817230302" to="373896382#3"/>
    <trip id="bus168" type="bus_bus" depart="1442.38" departLane="best" from="171867132" to="800669864"/>
    <trip id="bus169" type="bus_bus" depart="1450.96" departLane="best" from="706734274#1" to="171870075#1"/>
    <trip id="bus170" type="bus_bus" depart="1459.55" departLane="best" from="245441027#2" to="133755126#3"/>
    <trip id="bus171" type="bus_bus" depart="1468.13" departLane="best" from="374529120#1" to="171865792#2"/>
    <trip id="bus172" type="bus_bus" depart="1476.72" departLane="best" from="706734275#3" to="286438371#0"/>
    <trip id="bus173" type="bus_bus" depart="1485.30" departLane="best" from="-236471188#1" to="171902831#2"/>
    <trip id="bus175" type="bus_bus" depart="1502.47" departLane="best" from="171870085#1" to="-246989092#0"/>
    <trip id="bus176" type="bus_bus" depart="1511.06" departLane="best" from="-171865787" to="-288926324#0"/>
    <trip id="bus177" type="bus_bus" depart="1519.65" departLane="best" from="-246989083#3" to="-306475944#1"/>
    <trip id="bus178" type="bus_bus" depart="1528.23" departLane="best" from="-186262687#0" to="186263433#1"/>
    <trip id="bus179" type="bus_bus" depart="1536.82" departLane="best" from="236471188#1" to="-135530186#8"/>
    <trip id="bus180" type="bus_bus" depart="1545.40" departLane="best" from="-800610495#1" to="171865791"/>
    <trip id="bus181" type="bus_bus" depart="1553.99" departLane="best" from="-800610499" to="-186254736#1"/>
    <trip id="bus182" type="bus_bus" depart="1562.57" departLane="best" from="171867130#0" to="186263433#2"/>
    <trip id="bus183" type="bus_bus" depart="1571.16" departLane="best" from="-706734276#1" to="-122612374#1"/>
    <trip id="bus184" type="bus_bus" depart="1579.74" departLane="best" from="-374530997#0" to="288926324#3"/>
    <trip id="bus185" type="bus_bus" depart="1588.33" departLane="best" from="374533523#1" to="800669878"/>
    <trip id="bus186" type="bus_bus" depart="1596.92" departLane="best" from="-800610509#1" to="286438372"/>
    <trip id="bus187" type="bus_bus" depart="1605.50" departLane="best" from="171865792#10" to="171867136#3"/>
    <trip id="bus188" type="bus_bus" depart="1614.09" departLane="best" from="-800715314" to="-133755118#4"/>
    <trip id="bus189" type="bus_bus" depart="1622.67" departLane="best" from="-373896382#0" to="186258455#1"/>
    <trip id="bus190" type="bus_bus" depart="1631.26" departLane="best" from="-800384389" to="-171870084#2"/>
    <trip id="bus191" type="bus_bus" depart="1639.84" departLane="best" from="171870084#3" to="-133755118#2"/>
    <trip id="bus192" type="bus_bus" depart="1648.43" departLane="best" from="-133755118#2" to="171902839#2"/>
    <trip id="bus193" type="bus_bus" depart="1657.01" departLane="best" from="-133755126#8" to="-706734276#0"/>
    <trip id="bus195" type="bus_bus" depart="1674.19" departLane="best" from="288926324#2" to="374529120#2"/>
    <trip id="bus196" type="bus_bus" depart="1682.77" departLane="best" from="-236471195#0" to="-171865792#0"/>
    <trip id="bus197" type="bus_bus" depart="1691.36" departLane="best" from="-133637887#0" to="171865787"/>
    <trip id="bus198" type="bus_bus" depart="1699.94" departLane="best" from="817230302" to="-374529123#1"/>
    <trip id="bus199" type="bus_bus" depart="1708.53" departLane="best" from="171902841#1" to="306475944#1"/>
    <trip id="bus200" type="bus_bus" depart="1717.11" departLane="best" from="173655926#0" to="288926324#3"/>
    <trip id="bus201" type="bus_bus" depart="1725.70" departLane="best" from="800669864" to="-186250796"/>
    <trip id="bus202" type="bus_bus" depart="1734.29" departLane="best" from="-133637887#0" to="-171867138#1"/>
    <trip id="bus203" type="bus_bus" depart="1742.87" departLane="best" from="-171867130#3" to="186254736#6"/>
    <trip id="bus204" type="bus_bus" depart="1751.46" departLane="best" from="171865797#3" to="-186258452"/>
    <trip id="bus205" type="bus_bus" depart="1760.04" departLane="best" from="186263438#1" to="306475941#1"/>
    <trip id="bus206" type="bus_bus" depart="1768.63" departLane="best" from="-171870085#0" to="171867137#0"/>
    <trip id="bus207" type="bus_bus" depart="1777.21" departLane="best" from="286438372" to="-171867126#1"/>
    <trip id="bus208" type="bus_bus" depart="1785.80" departLane="best" from="-171865797#7" to="-133755118#2"/>
    <trip id="bus210" type="bus_bus" depart="1802.97" departLane="best" from="245441027#0" to="-171865779"/>
    <trip id="bus211" type="bus_bus" depart="1811.56" departLane="best" from="186262687#3" to="171870086#0"/>
    <trip id="bus212" type="bus_bus" depart="1820.14" departLane="best" from="-171865797#3" to="306475942#2"/>
    <trip id="bus213" type="bus_bus" depart="1828.73" departLane="best" from="374532416#4" to="171867136#1"/>
    <trip id="bus214" type="bus_bus" depart="1837.31" departLane="best" from="-171867129" to="804217356#3"/>
    <trip id="bus215" type="bus_bus" depart="1845.90" departLane="best" from="133755126#4" to="-373896382#3"/>
    <trip id="bus216" type="bus_bus" depart="1854.48" departLane="best" from="374532416#3" to="374529118#4"/>
    <trip id="bus217" type="bus_bus" depart="1863.07" departLane="best" from="-171865797#6" to="803758018"/>
    <trip id="bus218" type="bus_bus" depart="1871.65" departLane="best" from="171902831#0" to="374529120#0"/>
    <trip id="bus219" type="bus_bus" depart="1880.24" departLane="best" from="246989090" to="803758021"/>
    <trip id="bus220" type="bus_bus" depart="1888.83" departLane="best" from="171865779" to="133755118#0"/>
    <trip id="bus221" type="bus_bus" depart="1897.41" departLane="best" from="-800715314" to="246989087#0"/>
    <trip id="bus222" type="bus_bus" depart="1906.00" departLane="best" from="-246989083#1" to="374533523#0"/>
    <trip id="bus223" type="bus_bus" depart="1914.58" departLane="best" from="374529120#1" to="-171865792#3"/>
    <trip id="bus224" type="bus_bus" depart="1923.17" departLane="best" from="-706734276#0" to="-133755118#3"/>
    <trip id="bus225" type="bus_bus" depart="1931.75" departLane="best" from="374532416#4" to="-171902837"/>
    <trip id="bus226" type="bus_bus" depart="1940.34" departLane="best" from="-186254736#5" to="373896382#1"/>
    <trip id="bus227" type="bus_bus" depart="1948.92" departLane="best" from="-373896382#3" to="706318004#1"/>
    <trip id="bus228" type="bus_bus" depart="1957.51" departLane="best" from="186276679#0" to="-246989092#1"/>
    <trip id="bus229" type="bus_bus" depart="1966.10" departLane="best" from="-122612374#4" to="800669862"/>
    <trip id="bus230" type="bus_bus" depart="1974.68" departLane="best" from="-171865792#2" to="245441809#0"/>
    <trip id="bus231" type="bus_bus" depart="1983.27" departLane="best" from="133755118#3" to="290646812#0"/>
    <trip id="bus232" type="bus_bus" depart="1991.85" departLane="best" from="133755118#4" to="306475950"/>
    <trip id="bus233" type="bus_bus" depart="2000.44" departLane="best" from="-171865797#0" to="-186258455#0"/>
    <trip id="bus234" type="bus_bus" depart="2009.02" departLane="best" from="186262687#3" to="-306475941#1"/>
    <trip id="bus235" type="bus_bus" depart="2017.61" departLane="best" from="171867128" to="133637883#0"/>
    <trip id="bus236" type="bus_bus" depart="2026.19" departLane="best" from="158486424#1" to="-800669862"/>
    <trip id="bus237" type="bus_bus" depart="2034.78" departLane="best" from="286438371#1" to="-306475949"/>
    <trip id="bus238" type="bus_bus" depart="2043.37" departLane="best" from="186276679#1" to="-246989083#2"/>
    <trip id="bus239" type="bus_bus" depart="2051.95" departLane="best" from="-236471193#1" to="-171867129"/>
    <trip id="bus240" type="bus_bus" depart="2060.54" departLane="best" from="-171902841#0" to="-171867128"/>
    <trip id="bus241" type="bus_bus" depart="2069.12" departLane="best" from="158486424#4" to="306475940#0"/>
    <trip id="bus242" type="bus_bus" depart="2077.71" departLane="best" from="-171902839#1" to="-186258449"/>
    <trip id="bus243" type="bus_bus" depart="2086.29" departLane="best" from="133755118#0" to="246989083#0"/>
    <trip id="bus245" type="bus_bus" depart="2103.46" departLane="best" from="-286438371#1" to="-171865797#3"/>
    <trip id="bus246" type="bus_bus" depart="2112.05" departLane="best" from="-171902841#1" to="-186258459"/>
    <trip id="bus247" type="bus_bus" depart="2120.64" departLane="best" from="-171902831#0" to="-133637883#1"/>
    <trip id="bus248" type="bus_bus" depart="2129.22" departLane="best" from="158486424#3" to="-246989087#0"/>
    <trip id="bus249" type="bus_bus" depart="2137.81" departLane="best" from="803758026#1" to="171865792#7"/>
    <trip id="bus250" type="bus_bus" depart="2146.39" departLane="best" from="374533525#5" to="171865800"/>
    <trip id="bus251" type="bus_bus" depart="2154.98" departLane="best" from="-171902839#0" to="-133755126#9"/>
    <trip id="bus252" type="bus_bus" depart="2163.56" departLane="best" from="800610509#2" to="133637883#3"/>
    <trip id="bus253" type="bus_bus" depart="2172.15" departLane="best" from="374529118#4" to="-800384387#1"/>
    <trip id="bus254" type="bus_bus" depart="2180.73" departLane="best" from="-135530186#0" to="-171867137#1"/>
    <trip id="bus255" type="bus_bus" depart="2189.32" departLane="best" from="171865797#2" to="-306475941#0"/>
    <trip id="bus258" type="bus_bus" depart="2215.08" departLane="best" from="306475948" to="-186258456"/>
    <trip id="bus259" type="bus_bus" depart="2223.66" departLane="best" from="135530186#4" to="-803758027"/>
    <trip id="bus260" type="bus_bus" depart="2232.25" departLane="best" from="-803758021" to="374533524#4"/>
    <trip id="bus261" type="bus_bus" depart="2240.83" departLane="best" from="171870084#2" to="171867138#1"/>
    <trip id="bus262" type="bus_bus" depart="2249.42" departLane="best" from="246989098#1" to="800669862"/>
    <trip id="bus263" type="bus_bus" depart="2258.00" departLane="best" from="186254736#0" to="-171870081#0"/>
    <trip id="bus264" type="bus_bus" depart="2266.59" departLane="best" from="-171870086#1" to="-171865779"/>
    <trip id="bus265" type="bus_bus" depart="2275.18" departLane="best" from="-122612356#1" to="-803758027"/>
    <trip id="bus266" type="bus_bus" depart="2283.76" departLane="best" from="186276679#1" to="-804207582"/>
    <trip id="bus267" type="bus_bus" depart="2292.35" departLane="best" from="186258462#1" to="800384388"/>
    <trip id="bus268" type="bus_bus" depart="2300.93" departLane="best" from="306475946#3" to="171870085#0"/>
    <trip id="bus269" type="bus_bus" depart="2309.52" departLane="best" from="186254736#0" to="800610498#0"/>
    <trip id="bus270" type="bus_bus" depart="2318.10" departLane="best" from="-800669862" to="171865792#0"/>
    <trip id="bus271" type="bus_bus" depart="2326.69" departLane="best" from="171902841#0" to="720452476"/>
    <trip id="bus272" type="bus_bus" depart="2335.27" departLane="best" from="-171870084#3" to="-306475941#2"/>
    <trip id="bus273" type="bus_bus" depart="2343.86" departLane="best" from="-288926324#1" to="-171867130#1"/>
    <trip id="bus274" type="bus_bus" depart="2352.45" departLane="best" from="186262687#0" to="186263438#1"/>
    <trip id="bus275" type="bus_bus" depart="2361.03" departLane="best" from="133755126#0" to="-171865791"/>
    <trip id="bus276" type="bus_bus" depart="2369.62" departLane="best" from="-306475946#0" to="-236471193#0"/>
    <trip id="bus277" type="bus_bus" depart="2378.20" departLane="best" from="-171865792#8" to="803758019"/>
    <trip id="bus278" type="bus_bus" depart="2386.79" departLane="best" from="374529122#0" to="171867126#0"/>
    <trip id="bus279" type="bus_bus" depart="2395.37" departLane="best" from="186258449" to="-246989083#1"/>
    <trip id="bus280" type="bus_bus" depart="2403.96" departLane="best" from="-133755126#2" to="288926324#5"/>
    <trip id="bus281" type="bus_bus" depart="2412.55" departLane="best" from="133055393#1" to="173655926#0"/>