<?xml version="1.0" encoding="UTF-8"?>

<!-- generated on 02/16/21 17:54:34 by Eclipse SUMO netedit Version 1.7.0
<configuration xmlns:xsi="http://www.w3.org/2001/XMLSchema-instance" xsi:noNamespaceSchemaLocation="http://sumo.dlr.de/xsd/netconvertConfiguration.xsd">

    <output>
        <output-file value="C:\Users\Dell\Desktop\Vanet%20Prac\prac1.net.xml"/>
    </output>

    <processing>
        <offset.disable-normalization value="true"/>
    </processing>

    <junctions>
        <no-turnarounds value="true"/>
    </junctions>

    <netedit>
        <additional-files value="C:\Users\Dell\Desktop\Vanet%20Prac\prac1.add.xml"/>
        <route-files value="C:\Users\Dell\Desktop\Vanet%20Prac\prac1.rou.xml"/>
    </netedit>

    <report>
        <aggregate-warnings value="5"/>
    </report>

</configuration>
-->

<additional xmlns:xsi="http://www.w3.org/2001/XMLSchema-instance" xsi:noNamespaceSchemaLocation="http://sumo.dlr.de/xsd/additional_file.xsd">
    <parkingArea id="parkingArea_-gneE1_0_1" lane="-gneE1_0" startPos="21.53" endPos="31.53" roadsideCapacity="10"/>
    <parkingArea id="parkingArea_gneE3_0_0" lane="gneE3_0" startPos="17.55" endPos="27.55" roadsideCapacity="10"/>
</additional>
