<?xml version="1.0" encoding="UTF-8"?>

<!-- generated on 02/16/21 17:54:34 by Eclipse SUMO netedit Version 1.7.0
<configuration xmlns:xsi="http://www.w3.org/2001/XMLSchema-instance" xsi:noNamespaceSchemaLocation="http://sumo.dlr.de/xsd/netconvertConfiguration.xsd">

    <output>
        <output-file value="C:\Users\Dell\Desktop\Vanet%20Prac\prac1.net.xml"/>
    </output>

    <processing>
        <offset.disable-normalization value="true"/>
    </processing>

    <junctions>
        <no-turnarounds value="true"/>
    </junctions>

    <netedit>
        <additional-files value="C:\Users\Dell\Desktop\Vanet%20Prac\prac1.add.xml"/>
        <route-files value="C:\Users\Dell\Desktop\Vanet%20Prac\prac1.rou.xml"/>
    </netedit>

    <report>
        <aggregate-warnings value="5"/>
    </report>

</configuration>
-->

<routes xmlns:xsi="http://www.w3.org/2001/XMLSchema-instance" xsi:noNamespaceSchemaLocation="http://sumo.dlr.de/xsd/routes_file.xsd">
    <flow id="flow_0" type="DEFAULT_BIKETYPE" begin="0.00" from="-gneE5" to="-gneE0" end="3600.00" number="1000">
        <stop parkingArea="parkingArea_-gneE1_0_1" duration="60.00"/>
        <stop parkingArea="parkingArea_gneE3_0_0" duration="60.00"/>
        <stop parkingArea="parkingArea_-gneE1_0_1" duration="60.00"/>
    </flow>
    <flow id="flow_1" type="DEFAULT_BIKETYPE" begin="0.00" from="-gneE5" to="-gneE0" via="-gneE4 -gneE3 -gneE2 -gneE1" end="3600.00" number="1000"/>
    <flow id="flow_2" type="DEFAULT_BIKETYPE" begin="0.00" from="gneE0" to="gneE5" end="3600.00" number="1000"/>
</routes>
