<?xml version="1.0" encoding="UTF-8"?>

<!-- generated on 02/16/21 17:20:30 by Eclipse SUMO netedit Version 1.7.0
<configuration xmlns:xsi="http://www.w3.org/2001/XMLSchema-instance" xsi:noNamespaceSchemaLocation="http://sumo.dlr.de/xsd/netconvertConfiguration.xsd">

    <output>
        <output-file value="C:\Users\Dell\Desktop\practice.net.xml"/>
    </output>

    <processing>
        <offset.disable-normalization value="true"/>
    </processing>

    <junctions>
        <no-turnarounds value="true"/>
    </junctions>

    <netedit>
        <additional-files value="C:\Users\Dell\Desktop\practice.add.xml"/>
        <route-files value="C:\Users\Dell\Desktop\practice.rou.xml"/>
    </netedit>

    <report>
        <aggregate-warnings value="5"/>
    </report>

</configuration>
-->

<net version="1.6" junctionCornerDetail="5" limitTurnSpeed="5.50" xmlns:xsi="http://www.w3.org/2001/XMLSchema-instance" xsi:noNamespaceSchemaLocation="http://sumo.dlr.de/xsd/net_file.xsd">

    <location netOffset="0.00,0.00" convBoundary="-11.93,22.52,99.63,78.37" origBoundary="10000000000.00,10000000000.00,-10000000000.00,-10000000000.00" projParameter="!"/>

    <edge id=":gneJ0_0" function="internal">
        <lane id=":gneJ0_0_0" index="0" speed="13.89" length="64.99" shape="34.16,86.28 11.54,84.59 -4.77,79.57 -14.77,71.23 -18.46,59.57"/>
    </edge>
    <edge id=":gneJ0_1" function="internal">
        <lane id=":gneJ0_1_0" index="0" speed="13.89" length="60.09" shape="34.16,83.08 12.89,81.58 -2.43,77.14 -11.82,69.76 -15.26,59.44"/>
    </edge>
    <edge id=":gneJ0_2" function="internal">
        <lane id=":gneJ0_2_0" index="0" speed="9.38" length="6.11" shape="34.16,79.88 28.37,77.94"/>
    </edge>
    <edge id=":gneJ0_3" function="internal">
        <lane id=":gneJ0_3_0" index="0" speed="8.85" length="5.96" shape="34.16,79.88 28.52,77.95"/>
    </edge>
    <edge id=":gneJ0_11" function="internal">
        <lane id=":gneJ0_11_0" index="0" speed="9.38" length="30.47" shape="28.37,77.94 24.94,76.78 20.14,69.48 20.61,60.91 27.21,54.03"/>
    </edge>
    <edge id=":gneJ0_12" function="internal">
        <lane id=":gneJ0_12_0" index="0" speed="8.85" length="26.36" shape="28.52,77.95 26.12,77.12 22.09,70.61 22.73,62.99 28.66,56.88"/>
    </edge>
    <edge id=":gneJ0_4" function="internal">
        <lane id=":gneJ0_4_0" index="0" speed="5.59" length="11.74" shape="33.02,65.43 29.53,67.55 28.57,69.06 30.11,69.97 34.18,70.28"/>
    </edge>
    <edge id=":gneJ0_5" function="internal">
        <lane id=":gneJ0_5_0" index="0" speed="13.60" length="57.09" shape="31.56,62.58 14.57,70.19 -0.23,73.72 -10.84,70.90 -15.26,59.44"/>
    </edge>
    <edge id=":gneJ0_6" function="internal">
        <lane id=":gneJ0_6_0" index="0" speed="12.78" length="50.28" shape="30.11,59.73 14.82,66.67 1.46,70.22 -8.11,68.42 -12.06,59.32"/>
    </edge>
    <edge id=":gneJ0_7" function="internal">
        <lane id=":gneJ0_7_0" index="0" speed="13.47" length="40.78" shape="-2.47,58.93 -0.01,63.88 6.92,67.42 18.31,69.55 34.18,70.28"/>
    </edge>
    <edge id=":gneJ0_8" function="internal">
        <lane id=":gneJ0_8_0" index="0" speed="13.89" length="45.54" shape="-5.67,59.06 -2.96,65.35 4.58,69.85 16.96,72.56 34.17,73.48"/>
    </edge>
    <edge id=":gneJ0_9" function="internal">
        <lane id=":gneJ0_9_0" index="0" speed="11.20" length="38.32" shape="-8.86,59.19 -6.56,62.23 -0.02,61.90 10.75,58.22 25.75,51.18"/>
    </edge>
    <edge id=":gneJ0_10" function="internal">
        <lane id=":gneJ0_10_0" index="0" speed="13.89" length="50.35" shape="-8.86,59.19 -5.91,66.82 2.24,72.28 15.60,75.57 34.17,76.68"/>
    </edge>
    <edge id=":gneJ1_0" function="internal">
        <lane id=":gneJ1_0_0" index="0" speed="11.12" length="28.36" shape="107.51,68.80 106.39,76.49 103.08,81.98 97.58,85.27 89.88,86.36"/>
    </edge>
    <edge id=":gneJ1_1" function="internal">
        <lane id=":gneJ1_1_0" index="0" speed="10.10" length="23.20" shape="104.31,68.80 103.39,75.09 100.68,79.58 96.18,82.27 89.89,83.16"/>
    </edge>
    <edge id=":gneJ1_2" function="internal">
        <lane id=":gneJ1_2_0" index="0" speed="8.96" length="18.05" shape="101.11,68.79 100.39,73.68 98.29,77.17 94.79,79.26 89.89,79.96"/>
    </edge>
    <edge id=":gneJ1_3" function="internal">
        <lane id=":gneJ1_3_0" index="0" speed="3.90" length="2.58" shape="89.90,70.36 90.60,70.26 91.10,69.96 91.41,69.46 91.51,68.76"/>
    </edge>
    <edge id=":gneJ1_4" function="internal">
        <lane id=":gneJ1_4_0" index="0" speed="6.08" length="7.73" shape="89.90,73.56 92.00,73.26 93.50,72.36 94.40,70.87 94.71,68.77"/>
    </edge>
    <edge id=":gneJ1_5" function="internal">
        <lane id=":gneJ1_5_0" index="0" speed="7.66" length="12.89" shape="89.90,76.76 93.39,76.26 95.89,74.77 97.40,72.27 97.91,68.78"/>
    </edge>
    <edge id=":gneJ2_0" function="internal">
        <lane id=":gneJ2_0_0" index="0" speed="13.89" length="65.55" shape="55.51,14.58 78.32,16.28 94.60,21.46 104.35,30.12 107.58,42.25"/>
    </edge>
    <edge id=":gneJ2_1" function="internal">
        <lane id=":gneJ2_1_0" index="0" speed="13.89" length="60.48" shape="55.52,17.78 76.92,19.28 92.19,23.86 101.35,31.51 104.38,42.24"/>
    </edge>
    <edge id=":gneJ2_2" function="internal">
        <lane id=":gneJ2_2_0" index="0" speed="9.38" length="6.14" shape="55.52,20.98 61.34,22.92"/>
    </edge>
    <edge id=":gneJ2_3" function="internal">
        <lane id=":gneJ2_3_0" index="0" speed="8.84" length="5.99" shape="55.52,20.98 61.19,22.91"/>
    </edge>
    <edge id=":gneJ2_11" function="internal">
        <lane id=":gneJ2_11_0" index="0" speed="9.38" length="30.45" shape="61.34,22.92 64.75,24.06 69.56,31.36 69.10,39.93 62.51,46.82"/>
    </edge>
    <edge id=":gneJ2_12" function="internal">
        <lane id=":gneJ2_12_0" index="0" speed="8.84" length="26.33" shape="61.19,22.91 63.57,23.72 67.60,30.23 66.98,37.86 61.06,43.97"/>
    </edge>
    <edge id=":gneJ2_4" function="internal">
        <lane id=":gneJ2_4_0" index="0" speed="5.59" length="11.78" shape="56.70,35.41 60.19,33.29 61.17,31.78 59.61,30.87 55.53,30.58"/>
    </edge>
    <edge id=":gneJ2_5" function="internal">
        <lane id=":gneJ2_5_0" index="0" speed="13.46" length="57.29" shape="58.15,38.26 75.07,30.72 89.90,27.25 100.41,30.28 104.38,42.24"/>
    </edge>
    <edge id=":gneJ2_6" function="internal">
        <lane id=":gneJ2_6_0" index="0" speed="12.63" length="50.28" shape="59.60,41.12 74.79,34.25 88.13,30.76 97.60,32.73 101.18,42.23"/>
    </edge>
    <edge id=":gneJ2_7" function="internal">
        <lane id=":gneJ2_7_0" index="0" speed="9.91" length="30.43" shape="91.58,42.21 89.86,40.19 84.68,40.76 76.05,43.92 63.96,49.67"/>
    </edge>
    <edge id=":gneJ2_8" function="internal">
        <lane id=":gneJ2_8_0" index="0" speed="13.20" length="40.52" shape="91.58,42.21 89.34,37.10 82.58,33.46 71.31,31.29 55.53,30.58"/>
    </edge>
    <edge id=":gneJ2_9" function="internal">
        <lane id=":gneJ2_9_0" index="0" speed="13.89" length="45.44" shape="94.78,42.22 92.34,35.71 84.99,31.06 72.71,28.29 55.53,27.38"/>
    </edge>
    <edge id=":gneJ2_10" function="internal">
        <lane id=":gneJ2_10_0" index="0" speed="13.89" length="50.42" shape="97.98,42.23 95.34,34.31 87.39,28.66 74.12,25.28 55.52,24.18"/>
    </edge>
    <edge id=":gneJ3_0" function="internal">
        <lane id=":gneJ3_0_0" index="0" speed="11.11" length="29.19" shape="-19.52,32.96 -18.70,24.96 -15.50,19.24 -9.92,15.81 -1.96,14.65"/>
    </edge>
    <edge id=":gneJ3_1" function="internal">
        <lane id=":gneJ3_1_0" index="0" speed="10.09" length="23.88" shape="-16.32,32.83 -15.65,26.28 -13.03,21.61 -8.46,18.80 -1.95,17.85"/>
    </edge>
    <edge id=":gneJ3_2" function="internal">
        <lane id=":gneJ3_2_0" index="0" speed="8.96" length="18.57" shape="-13.13,32.70 -12.60,27.61 -10.56,23.97 -7.01,21.79 -1.95,21.05"/>
    </edge>
    <edge id=":gneJ3_3" function="internal">
        <lane id=":gneJ3_3_0" index="0" speed="3.90" length="2.65" shape="-1.94,30.65 -2.66,30.76 -3.17,31.07 -3.46,31.59 -3.53,32.32"/>
    </edge>
    <edge id=":gneJ3_4" function="internal">
        <lane id=":gneJ3_4_0" index="0" speed="6.07" length="7.96" shape="-1.94,27.45 -4.11,27.77 -5.63,28.70 -6.51,30.26 -6.73,32.45"/>
    </edge>
    <edge id=":gneJ3_5" function="internal">
        <lane id=":gneJ3_5_0" index="0" speed="7.65" length="13.27" shape="-1.95,24.25 -5.56,24.78 -8.10,26.34 -9.55,28.94 -9.93,32.57"/>
    </edge>

    <edge id="-gneE0" from="gneJ1" to="gneJ0" priority="-1">
        <lane id="-gneE0_0" index="0" speed="13.89" length="55.73" shape="89.88,86.36 34.16,86.28"/>
        <lane id="-gneE0_1" index="1" speed="13.89" length="55.73" shape="89.89,83.16 34.16,83.08"/>
        <lane id="-gneE0_2" index="2" speed="13.89" length="55.73" shape="89.89,79.96 34.16,79.88"/>
    </edge>
    <edge id="-gneE1" from="gneJ2" to="gneJ1" priority="-1">
        <lane id="-gneE1_0" index="0" speed="13.89" length="26.55" shape="107.58,42.25 107.51,68.80"/>
        <lane id="-gneE1_1" index="1" speed="13.89" length="26.55" shape="104.38,42.24 104.31,68.80"/>
        <lane id="-gneE1_2" index="2" speed="13.89" length="26.55" shape="101.18,42.23 101.11,68.79"/>
    </edge>
    <edge id="-gneE2" from="gneJ3" to="gneJ2" priority="-1">
        <lane id="-gneE2_0" index="0" speed="13.89" length="57.47" shape="-1.96,14.65 55.51,14.58"/>
        <lane id="-gneE2_1" index="1" speed="13.89" length="57.47" shape="-1.95,17.85 55.52,17.78"/>
        <lane id="-gneE2_2" index="2" speed="13.89" length="57.47" shape="-1.95,21.05 55.52,20.98"/>
    </edge>
    <edge id="-gneE3" from="gneJ0" to="gneJ3" priority="-1">
        <lane id="-gneE3_0" index="0" speed="13.89" length="26.64" shape="-18.46,59.57 -19.52,32.96"/>
        <lane id="-gneE3_1" index="1" speed="13.89" length="26.64" shape="-15.26,59.44 -16.32,32.83"/>
        <lane id="-gneE3_2" index="2" speed="13.89" length="26.64" shape="-12.06,59.32 -13.13,32.70"/>
    </edge>
    <edge id="-gneE4" from="gneJ2" to="gneJ0" priority="-1">
        <lane id="-gneE4_0" index="0" speed="13.89" length="34.73" shape="63.96,49.67 33.02,65.43"/>
        <lane id="-gneE4_1" index="1" speed="13.89" length="34.73" shape="62.51,46.82 31.56,62.58"/>
        <lane id="-gneE4_2" index="2" speed="13.89" length="34.73" shape="61.06,43.97 30.11,59.73"/>
    </edge>
    <edge id="gneE0" from="gneJ0" to="gneJ1" priority="-1">
        <lane id="gneE0_0" index="0" speed="13.89" length="55.73" shape="34.18,70.28 89.90,70.36"/>
        <lane id="gneE0_1" index="1" speed="13.89" length="55.73" shape="34.17,73.48 89.90,73.56"/>
        <lane id="gneE0_2" index="2" speed="13.89" length="55.73" shape="34.17,76.68 89.90,76.76"/>
    </edge>
    <edge id="gneE1" from="gneJ1" to="gneJ2" priority="-1">
        <lane id="gneE1_0" index="0" speed="13.89" length="26.55" shape="91.51,68.76 91.58,42.21"/>
        <lane id="gneE1_1" index="1" speed="13.89" length="26.55" shape="94.71,68.77 94.78,42.22"/>
        <lane id="gneE1_2" index="2" speed="13.89" length="26.55" shape="97.91,68.78 97.98,42.23"/>
    </edge>
    <edge id="gneE2" from="gneJ2" to="gneJ3" priority="-1">
        <lane id="gneE2_0" index="0" speed="13.89" length="57.47" shape="55.53,30.58 -1.94,30.65"/>
        <lane id="gneE2_1" index="1" speed="13.89" length="57.47" shape="55.53,27.38 -1.94,27.45"/>
        <lane id="gneE2_2" index="2" speed="13.89" length="57.47" shape="55.52,24.18 -1.95,24.25"/>
    </edge>
    <edge id="gneE3" from="gneJ3" to="gneJ0" priority="-1">
        <lane id="gneE3_0" index="0" speed="13.89" length="26.64" shape="-3.53,32.32 -2.47,58.93"/>
        <lane id="gneE3_1" index="1" speed="13.89" length="26.64" shape="-6.73,32.45 -5.67,59.06"/>
        <lane id="gneE3_2" index="2" speed="13.89" length="26.64" shape="-9.93,32.57 -8.86,59.19"/>
    </edge>
    <edge id="gneE4" from="gneJ0" to="gneJ2" priority="-1">
        <lane id="gneE4_0" index="0" speed="13.89" length="34.73" shape="25.75,51.18 56.70,35.41"/>
        <lane id="gneE4_1" index="1" speed="13.89" length="34.73" shape="27.21,54.03 58.15,38.26"/>
        <lane id="gneE4_2" index="2" speed="13.89" length="34.73" shape="28.66,56.88 59.60,41.12"/>
    </edge>

    <tlLogic id="gneJ0" type="static" programID="0" offset="0">
        <phase duration="38" state="GGggrrrGGgG"/>
        <phase duration="3"  state="yyggrrryyyy"/>
        <phase duration="6"  state="GGGGrrrrrrr"/>
        <phase duration="3"  state="yyyyrrrrrrr"/>
        <phase duration="37" state="rrrrGGGrrGr"/>
        <phase duration="3"  state="rrrryyyrryr"/>
    </tlLogic>
    <tlLogic id="gneJ2" type="static" programID="0" offset="0">
        <phase duration="38" state="GGggrrrGGGG"/>
        <phase duration="3"  state="yyggrrryyyy"/>
        <phase duration="6"  state="GGGGrrrrrrr"/>
        <phase duration="3"  state="yyyyrrrrrrr"/>
        <phase duration="37" state="rrrrGGGGrrr"/>
        <phase duration="3"  state="rrrryyyyrrr"/>
    </tlLogic>

    <junction id="gneJ0" type="traffic_light" x="-9.70" y="78.22" incLanes="-gneE0_0 -gneE0_1 -gneE0_2 -gneE4_0 -gneE4_1 -gneE4_2 gneE3_0 gneE3_1 gneE3_2" intLanes=":gneJ0_0_0 :gneJ0_1_0 :gneJ0_11_0 :gneJ0_12_0 :gneJ0_4_0 :gneJ0_5_0 :gneJ0_6_0 :gneJ0_7_0 :gneJ0_8_0 :gneJ0_9_0 :gneJ0_10_0" shape="34.15,87.88 34.18,68.68 33.74,66.86 25.03,49.75 18.40,53.06 12.30,55.93 7.03,58.16 2.88,59.52 0.15,59.83 -0.87,58.87 -20.05,59.64 -18.24,68.25 -13.53,75.30 -5.94,80.78 4.54,84.71 17.90,87.08">
        <request index="0"  response="00000000000" foes="00001100000" cont="0"/>
        <request index="1"  response="00000000000" foes="00001100000" cont="0"/>
        <request index="2"  response="10110000000" foes="10111100000" cont="1"/>
        <request index="3"  response="10110000000" foes="10111100000" cont="1"/>
        <request index="4"  response="10110000000" foes="10110000000" cont="0"/>
        <request index="5"  response="10110001111" foes="10110001111" cont="0"/>
        <request index="6"  response="10110001111" foes="10110001111" cont="0"/>
        <request index="7"  response="00000000000" foes="01001111100" cont="0"/>
        <request index="8"  response="00000000000" foes="01001111100" cont="0"/>
        <request index="9"  response="00110000000" foes="00110000000" cont="0"/>
        <request index="10" response="00000000000" foes="00001111100" cont="0"/>
    </junction>
    <junction id="gneJ1" type="priority" x="99.48" y="78.37" incLanes="-gneE1_0 -gneE1_1 -gneE1_2 gneE0_0 gneE0_1 gneE0_2" intLanes=":gneJ1_0_0 :gneJ1_1_0 :gneJ1_2_0 :gneJ1_3_0 :gneJ1_4_0 :gneJ1_5_0" shape="109.11,68.81 89.91,68.76 89.88,87.96 95.74,87.43 100.54,85.84 104.27,83.18 106.95,79.46 108.56,74.67">
        <request index="0" response="000000" foes="000000" cont="0"/>
        <request index="1" response="000000" foes="000000" cont="0"/>
        <request index="2" response="000000" foes="000000" cont="0"/>
        <request index="3" response="000000" foes="000000" cont="0"/>
        <request index="4" response="000000" foes="000000" cont="0"/>
        <request index="5" response="000000" foes="000000" cont="0"/>
    </junction>
    <junction id="gneJ2" type="traffic_light" x="99.63" y="22.52" incLanes="-gneE2_0 -gneE2_1 -gneE2_2 gneE4_0 gneE4_1 gneE4_2 gneE1_0 gneE1_1 gneE1_2" intLanes=":gneJ2_0_0 :gneJ2_1_0 :gneJ2_11_0 :gneJ2_12_0 :gneJ2_4_0 :gneJ2_5_0 :gneJ2_6_0 :gneJ2_7_0 :gneJ2_8_0 :gneJ2_9_0 :gneJ2_10_0" shape="55.51,12.98 55.54,32.18 55.97,33.99 64.69,51.10 71.17,47.86 77.14,45.04 82.31,42.86 86.37,41.53 89.03,41.24 89.98,42.20 109.18,42.26 107.71,33.29 103.25,25.96 95.80,20.26 85.36,16.20 71.93,13.77">
        <request index="0"  response="00000000000" foes="00001100000" cont="0"/>
        <request index="1"  response="00000000000" foes="00001100000" cont="0"/>
        <request index="2"  response="11100000000" foes="11101100000" cont="1"/>
        <request index="3"  response="11100000000" foes="11101100000" cont="1"/>
        <request index="4"  response="11100000000" foes="11100000000" cont="0"/>
        <request index="5"  response="11100001111" foes="11100001111" cont="0"/>
        <request index="6"  response="11100001111" foes="11100001111" cont="0"/>
        <request index="7"  response="00000000000" foes="00000000000" cont="0"/>
        <request index="8"  response="00000000000" foes="00001111100" cont="0"/>
        <request index="9"  response="00000000000" foes="00001111100" cont="0"/>
        <request index="10" response="00000000000" foes="00001111100" cont="0"/>
    </junction>
    <junction id="gneJ3" type="priority" x="-11.93" y="22.67" incLanes="-gneE3_0 -gneE3_1 -gneE3_2 gneE2_0 gneE2_1 gneE2_2" intLanes=":gneJ3_0_0 :gneJ3_1_0 :gneJ3_2_0 :gneJ3_3_0 :gneJ3_4_0 :gneJ3_5_0" shape="-21.12,33.02 -1.93,32.25 -1.96,13.05 -8.04,13.62 -12.96,15.28 -16.73,18.06 -19.35,21.94 -20.81,26.93">
        <request index="0" response="000000" foes="000000" cont="0"/>
        <request index="1" response="000000" foes="000000" cont="0"/>
        <request index="2" response="000000" foes="000000" cont="0"/>
        <request index="3" response="000000" foes="000000" cont="0"/>
        <request index="4" response="000000" foes="000000" cont="0"/>
        <request index="5" response="000000" foes="000000" cont="0"/>
    </junction>

    <junction id=":gneJ0_11_0" type="internal" x="28.37" y="77.94" incLanes=":gneJ0_2_0 gneE3_0 gneE3_1 gneE3_2" intLanes=":gneJ0_5_0 :gneJ0_6_0 :gneJ0_7_0 :gneJ0_8_0 :gneJ0_10_0"/>
    <junction id=":gneJ0_12_0" type="internal" x="28.52" y="77.95" incLanes=":gneJ0_3_0 gneE3_0 gneE3_1 gneE3_2" intLanes=":gneJ0_5_0 :gneJ0_6_0 :gneJ0_7_0 :gneJ0_8_0 :gneJ0_10_0"/>
    <junction id=":gneJ2_11_0" type="internal" x="61.34" y="22.92" incLanes=":gneJ2_2_0 gneE1_0 gneE1_1 gneE1_2" intLanes=":gneJ2_5_0 :gneJ2_6_0 :gneJ2_8_0 :gneJ2_9_0 :gneJ2_10_0"/>
    <junction id=":gneJ2_12_0" type="internal" x="61.19" y="22.91" incLanes=":gneJ2_3_0 gneE1_0 gneE1_1 gneE1_2" intLanes=":gneJ2_5_0 :gneJ2_6_0 :gneJ2_8_0 :gneJ2_9_0 :gneJ2_10_0"/>

    <connection from="-gneE0" to="-gneE3" fromLane="0" toLane="0" via=":gneJ0_0_0" tl="gneJ0" linkIndex="0" dir="L" state="O"/>
    <connection from="-gneE0" to="-gneE3" fromLane="1" toLane="1" via=":gneJ0_1_0" tl="gneJ0" linkIndex="1" dir="L" state="O"/>
    <connection from="-gneE0" to="gneE4" fromLane="2" toLane="1" via=":gneJ0_2_0" tl="gneJ0" linkIndex="2" dir="l" state="o"/>
    <connection from="-gneE0" to="gneE4" fromLane="2" toLane="2" via=":gneJ0_3_0" tl="gneJ0" linkIndex="3" dir="l" state="o"/>
    <connection from="-gneE1" to="-gneE0" fromLane="0" toLane="0" via=":gneJ1_0_0" dir="l" state="M"/>
    <connection from="-gneE1" to="-gneE0" fromLane="1" toLane="1" via=":gneJ1_1_0" dir="l" state="M"/>
    <connection from="-gneE1" to="-gneE0" fromLane="2" toLane="2" via=":gneJ1_2_0" dir="l" state="M"/>
    <connection from="-gneE2" to="-gneE1" fromLane="0" toLane="0" via=":gneJ2_0_0" tl="gneJ2" linkIndex="0" dir="l" state="O"/>
    <connection from="-gneE2" to="-gneE1" fromLane="1" toLane="1" via=":gneJ2_1_0" tl="gneJ2" linkIndex="1" dir="l" state="O"/>
    <connection from="-gneE2" to="-gneE4" fromLane="2" toLane="1" via=":gneJ2_2_0" tl="gneJ2" linkIndex="2" dir="l" state="o"/>
    <connection from="-gneE2" to="-gneE4" fromLane="2" toLane="2" via=":gneJ2_3_0" tl="gneJ2" linkIndex="3" dir="l" state="o"/>
    <connection from="-gneE3" to="-gneE2" fromLane="0" toLane="0" via=":gneJ3_0_0" dir="l" state="M"/>
    <connection from="-gneE3" to="-gneE2" fromLane="1" toLane="1" via=":gneJ3_1_0" dir="l" state="M"/>
    <connection from="-gneE3" to="-gneE2" fromLane="2" toLane="2" via=":gneJ3_2_0" dir="l" state="M"/>
    <connection from="-gneE4" to="gneE0" fromLane="0" toLane="0" via=":gneJ0_4_0" tl="gneJ0" linkIndex="4" dir="r" state="o"/>
    <connection from="-gneE4" to="-gneE3" fromLane="1" toLane="1" via=":gneJ0_5_0" tl="gneJ0" linkIndex="5" dir="l" state="o"/>
    <connection from="-gneE4" to="-gneE3" fromLane="2" toLane="2" via=":gneJ0_6_0" tl="gneJ0" linkIndex="6" dir="l" state="o"/>
    <connection from="gneE0" to="gneE1" fromLane="0" toLane="0" via=":gneJ1_3_0" dir="r" state="M"/>
    <connection from="gneE0" to="gneE1" fromLane="1" toLane="1" via=":gneJ1_4_0" dir="r" state="M"/>
    <connection from="gneE0" to="gneE1" fromLane="2" toLane="2" via=":gneJ1_5_0" dir="r" state="M"/>
    <connection from="gneE1" to="-gneE4" fromLane="0" toLane="0" via=":gneJ2_7_0" tl="gneJ2" linkIndex="7" dir="r" state="O"/>
    <connection from="gneE1" to="gneE2" fromLane="0" toLane="0" via=":gneJ2_8_0" tl="gneJ2" linkIndex="8" dir="r" state="O"/>
    <connection from="gneE1" to="gneE2" fromLane="1" toLane="1" via=":gneJ2_9_0" tl="gneJ2" linkIndex="9" dir="r" state="O"/>
    <connection from="gneE1" to="gneE2" fromLane="2" toLane="2" via=":gneJ2_10_0" tl="gneJ2" linkIndex="10" dir="r" state="O"/>
    <connection from="gneE2" to="gneE3" fromLane="0" toLane="0" via=":gneJ3_3_0" dir="r" state="M"/>
    <connection from="gneE2" to="gneE3" fromLane="1" toLane="1" via=":gneJ3_4_0" dir="r" state="M"/>
    <connection from="gneE2" to="gneE3" fromLane="2" toLane="2" via=":gneJ3_5_0" dir="r" state="M"/>
    <connection from="gneE3" to="gneE0" fromLane="0" toLane="0" via=":gneJ0_7_0" tl="gneJ0" linkIndex="7" dir="R" state="O"/>
    <connection from="gneE3" to="gneE0" fromLane="1" toLane="1" via=":gneJ0_8_0" tl="gneJ0" linkIndex="8" dir="R" state="O"/>
    <connection from="gneE3" to="gneE4" fromLane="2" toLane="0" via=":gneJ0_9_0" tl="gneJ0" linkIndex="9" dir="r" state="o"/>
    <connection from="gneE3" to="gneE0" fromLane="2" toLane="2" via=":gneJ0_10_0" tl="gneJ0" linkIndex="10" dir="R" state="O"/>
    <connection from="gneE4" to="gneE2" fromLane="0" toLane="0" via=":gneJ2_4_0" tl="gneJ2" linkIndex="4" dir="r" state="o"/>
    <connection from="gneE4" to="-gneE1" fromLane="1" toLane="1" via=":gneJ2_5_0" tl="gneJ2" linkIndex="5" dir="l" state="o"/>
    <connection from="gneE4" to="-gneE1" fromLane="2" toLane="2" via=":gneJ2_6_0" tl="gneJ2" linkIndex="6" dir="l" state="o"/>

    <connection from=":gneJ0_0" to="-gneE3" fromLane="0" toLane="0" dir="L" state="M"/>
    <connection from=":gneJ0_1" to="-gneE3" fromLane="0" toLane="1" dir="L" state="M"/>
    <connection from=":gneJ0_2" to="gneE4" fromLane="0" toLane="1" via=":gneJ0_11_0" dir="l" state="m"/>
    <connection from=":gneJ0_11" to="gneE4" fromLane="0" toLane="1" dir="l" state="M"/>
    <connection from=":gneJ0_3" to="gneE4" fromLane="0" toLane="2" via=":gneJ0_12_0" dir="l" state="m"/>
    <connection from=":gneJ0_12" to="gneE4" fromLane="0" toLane="2" dir="l" state="M"/>
    <connection from=":gneJ0_4" to="gneE0" fromLane="0" toLane="0" dir="r" state="M"/>
    <connection from=":gneJ0_5" to="-gneE3" fromLane="0" toLane="1" dir="l" state="M"/>
    <connection from=":gneJ0_6" to="-gneE3" fromLane="0" toLane="2" dir="l" state="M"/>
    <connection from=":gneJ0_7" to="gneE0" fromLane="0" toLane="0" dir="R" state="M"/>
    <connection from=":gneJ0_8" to="gneE0" fromLane="0" toLane="1" dir="R" state="M"/>
    <connection from=":gneJ0_9" to="gneE4" fromLane="0" toLane="0" dir="r" state="M"/>
    <connection from=":gneJ0_10" to="gneE0" fromLane="0" toLane="2" dir="R" state="M"/>
    <connection from=":gneJ1_0" to="-gneE0" fromLane="0" toLane="0" dir="l" state="M"/>
    <connection from=":gneJ1_1" to="-gneE0" fromLane="0" toLane="1" dir="l" state="M"/>
    <connection from=":gneJ1_2" to="-gneE0" fromLane="0" toLane="2" dir="l" state="M"/>
    <connection from=":gneJ1_3" to="gneE1" fromLane="0" toLane="0" dir="r" state="M"/>
    <connection from=":gneJ1_4" to="gneE1" fromLane="0" toLane="1" dir="r" state="M"/>
    <connection from=":gneJ1_5" to="gneE1" fromLane="0" toLane="2" dir="r" state="M"/>
    <connection from=":gneJ2_0" to="-gneE1" fromLane="0" toLane="0" dir="l" state="M"/>
    <connection from=":gneJ2_1" to="-gneE1" fromLane="0" toLane="1" dir="l" state="M"/>
    <connection from=":gneJ2_2" to="-gneE4" fromLane="0" toLane="1" via=":gneJ2_11_0" dir="l" state="m"/>
    <connection from=":gneJ2_11" to="-gneE4" fromLane="0" toLane="1" dir="l" state="M"/>
    <connection from=":gneJ2_3" to="-gneE4" fromLane="0" toLane="2" via=":gneJ2_12_0" dir="l" state="m"/>
    <connection from=":gneJ2_12" to="-gneE4" fromLane="0" toLane="2" dir="l" state="M"/>
    <connection from=":gneJ2_4" to="gneE2" fromLane="0" toLane="0" dir="r" state="M"/>
    <connection from=":gneJ2_5" to="-gneE1" fromLane="0" toLane="1" dir="l" state="M"/>
    <connection from=":gneJ2_6" to="-gneE1" fromLane="0" toLane="2" dir="l" state="M"/>
    <connection from=":gneJ2_7" to="-gneE4" fromLane="0" toLane="0" dir="r" state="M"/>
    <connection from=":gneJ2_8" to="gneE2" fromLane="0" toLane="0" dir="r" state="M"/>
    <connection from=":gneJ2_9" to="gneE2" fromLane="0" toLane="1" dir="r" state="M"/>
    <connection from=":gneJ2_10" to="gneE2" fromLane="0" toLane="2" dir="r" state="M"/>
    <connection from=":gneJ3_0" to="-gneE2" fromLane="0" toLane="0" dir="l" state="M"/>
    <connection from=":gneJ3_1" to="-gneE2" fromLane="0" toLane="1" dir="l" state="M"/>
    <connection from=":gneJ3_2" to="-gneE2" fromLane="0" toLane="2" dir="l" state="M"/>
    <connection from=":gneJ3_3" to="gneE3" fromLane="0" toLane="0" dir="r" state="M"/>
    <connection from=":gneJ3_4" to="gneE3" fromLane="0" toLane="1" dir="r" state="M"/>
    <connection from=":gneJ3_5" to="gneE3" fromLane="0" toLane="2" dir="r" state="M"/>

</net>
