<?xml version="1.0" encoding="UTF-8"?>

<!-- generated on 02/16/21 17:54:31 by Eclipse SUMO netedit Version 1.7.0
<configuration xmlns:xsi="http://www.w3.org/2001/XMLSchema-instance" xsi:noNamespaceSchemaLocation="http://sumo.dlr.de/xsd/netconvertConfiguration.xsd">

    <output>
        <output-file value="C:\Users\Dell\Desktop\Vanet%20Prac\prac1.net.xml"/>
    </output>

    <processing>
        <offset.disable-normalization value="true"/>
    </processing>

    <junctions>
        <no-turnarounds value="true"/>
    </junctions>

    <netedit>
        <additional-files value="C:\Users\Dell\Desktop\Vanet%20Prac\prac1.add.xml"/>
        <route-files value="C:\Users\Dell\Desktop\Vanet%20Prac\prac1.rou.xml"/>
    </netedit>

    <report>
        <aggregate-warnings value="5"/>
    </report>

</configuration>
-->

<net version="1.6" junctionCornerDetail="5" limitTurnSpeed="5.50" xmlns:xsi="http://www.w3.org/2001/XMLSchema-instance" xsi:noNamespaceSchemaLocation="http://sumo.dlr.de/xsd/net_file.xsd">

    <location netOffset="0.00,0.00" convBoundary="-33.26,7.56,136.81,82.67" origBoundary="10000000000.00,10000000000.00,-10000000000.00,-10000000000.00" projParameter="!"/>

    <edge id=":gneJ0_0" function="internal">
        <lane id=":gneJ0_0_0" index="0" speed="13.89" length="39.52" shape="129.83,72.44 125.85,79.02 118.86,83.70 108.86,86.50 95.85,87.41"/>
    </edge>
    <edge id=":gneJ0_1" function="internal">
        <lane id=":gneJ0_1_0" index="0" speed="13.89" length="35.52" shape="126.79,71.44 123.27,77.05 116.94,81.05 107.81,83.43 95.86,84.21"/>
    </edge>
    <edge id=":gneJ0_2" function="internal">
        <lane id=":gneJ0_2_0" index="0" speed="10.89" length="10.46" shape="126.79,71.44 122.69,77.22 119.35,77.72"/>
    </edge>
    <edge id=":gneJ0_8" function="internal">
        <lane id=":gneJ0_8_0" index="0" speed="10.89" length="22.15" shape="119.35,77.72 116.38,78.17 108.37,75.39 99.16,70.01"/>
    </edge>
    <edge id=":gneJ0_3" function="internal">
        <lane id=":gneJ0_3_0" index="0" speed="8.71" length="20.43" shape="102.67,64.65 109.85,68.92 115.25,71.14 118.87,71.31 120.71,69.44"/>
    </edge>
    <edge id=":gneJ0_4" function="internal">
        <lane id=":gneJ0_4_0" index="0" speed="7.83" length="23.82" shape="100.91,67.33 104.95,72.23 105.13,77.79 101.93,82.33 95.86,84.21"/>
    </edge>
    <edge id=":gneJ0_5" function="internal">
        <lane id=":gneJ0_5_0" index="0" speed="5.48" length="10.75" shape="95.87,77.81 99.49,77.49 100.95,76.54 100.26,74.93 97.41,72.68"/>
    </edge>
    <edge id=":gneJ0_6" function="internal">
        <lane id=":gneJ0_6_0" index="0" speed="12.53" length="27.56" shape="95.87,77.81 105.70,77.30 113.11,75.74 118.12,73.12 120.71,69.44"/>
    </edge>
    <edge id=":gneJ0_7" function="internal">
        <lane id=":gneJ0_7_0" index="0" speed="13.38" length="31.53" shape="95.86,81.01 106.75,80.37 115.03,78.39 120.69,75.09 123.75,70.44"/>
    </edge>
    <edge id=":gneJ1_0" function="internal">
        <lane id=":gneJ1_0_0" index="0" speed="9.49" length="10.49" shape="1.81,87.18 -0.87,86.89 -3.27,86.03 -5.37,84.60 -7.19,82.60"/>
    </edge>
    <edge id=":gneJ1_1" function="internal">
        <lane id=":gneJ1_1_0" index="0" speed="8.10" length="7.49" shape="1.82,83.98 -0.10,83.77 -1.81,83.16 -3.31,82.14 -4.61,80.71"/>
    </edge>
    <edge id=":gneJ1_2" function="internal">
        <lane id=":gneJ1_2_0" index="0" speed="4.08" length="1.50" shape="0.55,76.92 0.81,77.21 1.11,77.41 1.45,77.54 1.84,77.58"/>
    </edge>
    <edge id=":gneJ1_3" function="internal">
        <lane id=":gneJ1_3_0" index="0" speed="6.41" length="4.49" shape="-2.03,78.82 -1.25,79.67 -0.35,80.29 0.68,80.65 1.83,80.78"/>
    </edge>
    <edge id=":gneJ2_0" function="internal">
        <lane id=":gneJ2_0_0" index="0" speed="8.97" length="17.77" shape="-33.43,46.85 -35.72,42.57 -36.12,38.56 -34.62,34.82 -31.23,31.34"/>
    </edge>
    <edge id=":gneJ2_1" function="internal">
        <lane id=":gneJ2_1_0" index="0" speed="7.66" length="12.69" shape="-30.85,44.95 -32.48,41.90 -32.77,39.03 -31.70,36.36 -29.28,33.88"/>
    </edge>
    <edge id=":gneJ2_2" function="internal">
        <lane id=":gneJ2_2_0" index="0" speed="3.91" length="2.54" shape="-25.37,38.95 -25.86,39.45 -26.07,39.98 -26.02,40.56 -25.69,41.17"/>
    </edge>
    <edge id=":gneJ2_3" function="internal">
        <lane id=":gneJ2_3_0" index="0" speed="6.08" length="7.61" shape="-27.32,36.42 -28.78,37.90 -29.42,39.51 -29.25,41.23 -28.27,43.06"/>
    </edge>
    <edge id=":gneJ3_0" function="internal">
        <lane id=":gneJ3_0_0" index="0" speed="12.01" length="24.75" shape="25.71,25.72 17.45,20.67 10.97,17.52 6.26,16.25 3.34,16.87"/>
    </edge>
    <edge id=":gneJ3_1" function="internal">
        <lane id=":gneJ3_1_0" index="0" speed="7.84" length="23.82" shape="27.46,23.05 23.41,18.15 23.22,12.60 26.40,8.05 32.47,6.15"/>
    </edge>
    <edge id=":gneJ3_2" function="internal">
        <lane id=":gneJ3_2_0" index="0" speed="5.48" length="10.70" shape="32.49,12.55 28.90,12.88 27.45,13.85 28.14,15.46 30.97,17.69"/>
    </edge>
    <edge id=":gneJ3_3" function="internal">
        <lane id=":gneJ3_3_0" index="0" speed="13.89" length="31.01" shape="32.49,12.55 24.83,12.38 17.14,12.44 9.83,13.63 3.34,16.87"/>
        <lane id=":gneJ3_3_1" index="1" speed="13.89" length="31.01" shape="32.48,9.35 24.52,9.28 16.15,9.57 8.18,10.99 1.39,14.33"/>
    </edge>
    <edge id=":gneJ3_5" function="internal">
        <lane id=":gneJ3_5_0" index="0" speed="13.89" length="34.99" shape="-2.52,9.26 4.89,5.71 14.19,3.83 23.88,3.09 32.45,2.95"/>
        <lane id=":gneJ3_5_1" index="1" speed="13.89" length="34.99" shape="-0.57,11.80 6.53,8.35 15.17,6.70 24.20,6.19 32.47,6.15"/>
    </edge>
    <edge id=":gneJ3_7" function="internal">
        <lane id=":gneJ3_7_0" index="0" speed="13.69" length="6.74" shape="-0.57,11.80 4.17,10.12 5.87,10.34"/>
    </edge>
    <edge id=":gneJ3_8" function="internal">
        <lane id=":gneJ3_8_0" index="0" speed="13.69" length="25.69" shape="5.87,10.34 10.72,10.99 19.07,14.40 29.22,20.37"/>
    </edge>
    <edge id=":gneJ4_0" function="internal">
        <lane id=":gneJ4_0_0" index="0" speed="13.89" length="1.45" shape="76.81,12.52 76.61,12.43 76.47,12.38 76.33,12.36 76.11,12.36"/>
        <lane id=":gneJ4_0_1" index="1" speed="8.25" length="1.45" shape="78.19,9.63 77.60,9.36 77.18,9.22 76.74,9.17 76.10,9.16"/>
    </edge>
    <edge id=":gneJ4_2" function="internal">
        <lane id=":gneJ4_2_0" index="0" speed="12.36" length="4.35" shape="76.07,2.76 77.57,2.78 78.60,2.90 79.58,3.23 80.94,3.85"/>
        <lane id=":gneJ4_2_1" index="1" speed="10.51" length="4.35" shape="76.09,5.96 77.16,5.97 77.89,6.06 78.59,6.30 79.57,6.74"/>
    </edge>
    <edge id=":gneJ5_0" function="internal">
        <lane id=":gneJ5_0_0" index="0" speed="9.00" length="16.44" shape="133.80,29.09 137.50,31.54 139.70,34.62 140.41,38.34 139.61,42.70"/>
    </edge>
    <edge id=":gneJ5_1" function="internal">
        <lane id=":gneJ5_1_0" index="0" speed="7.69" length="11.74" shape="132.42,31.98 135.06,33.73 136.64,35.93 137.14,38.59 136.57,41.70"/>
    </edge>
    <edge id=":gneJ5_2" function="internal">
        <lane id=":gneJ5_2_0" index="0" speed="3.92" length="2.35" shape="130.49,39.70 130.61,39.08 130.51,38.55 130.19,38.11 129.66,37.76"/>
    </edge>
    <edge id=":gneJ5_3" function="internal">
        <lane id=":gneJ5_3_0" index="0" speed="6.10" length="7.05" shape="133.53,40.70 133.87,38.83 133.57,37.24 132.63,35.92 131.04,34.87"/>
    </edge>

    <edge id="-gneE0" from="gneJ1" to="gneJ0" priority="-1">
        <lane id="-gneE0_0" index="0" speed="13.89" length="94.04" shape="1.84,77.58 95.87,77.81"/>
        <lane id="-gneE0_1" index="1" speed="13.89" length="94.04" shape="1.83,80.78 95.86,81.01"/>
    </edge>
    <edge id="-gneE1" from="gneJ2" to="gneJ1" priority="-1">
        <lane id="-gneE1_0" index="0" speed="13.89" length="44.35" shape="-25.69,41.17 0.55,76.92"/>
        <lane id="-gneE1_1" index="1" speed="13.89" length="44.35" shape="-28.27,43.06 -2.03,78.82"/>
    </edge>
    <edge id="-gneE2" from="gneJ3" to="gneJ2" priority="-1">
        <lane id="-gneE2_0" index="0" speed="13.89" length="36.22" shape="3.34,16.87 -25.37,38.95"/>
        <lane id="-gneE2_1" index="1" speed="13.89" length="36.22" shape="1.39,14.33 -27.32,36.42"/>
    </edge>
    <edge id="-gneE3" from="gneJ4" to="gneJ3" priority="-1">
        <lane id="-gneE3_0" index="0" speed="13.89" length="43.62" shape="76.11,12.36 32.49,12.55"/>
        <lane id="-gneE3_1" index="1" speed="13.89" length="43.62" shape="76.10,9.16 32.48,9.35"/>
    </edge>
    <edge id="-gneE4" from="gneJ5" to="gneJ4" priority="-1">
        <lane id="-gneE4_0" index="0" speed="13.89" length="58.57" shape="129.66,37.76 76.81,12.52"/>
        <lane id="-gneE4_1" index="1" speed="13.89" length="58.57" shape="131.04,34.87 78.19,9.63"/>
    </edge>
    <edge id="-gneE5" from="gneJ0" to="gneJ5" priority="-1">
        <lane id="-gneE5_0" index="0" speed="13.89" length="31.31" shape="120.71,69.44 130.49,39.70"/>
        <lane id="-gneE5_1" index="1" speed="13.89" length="31.31" shape="123.75,70.44 133.53,40.70"/>
    </edge>
    <edge id="-gneE6" from="gneJ3" to="gneJ0" priority="-1">
        <lane id="-gneE6_0" index="0" speed="13.89" length="85.71" shape="30.97,17.69 102.67,64.65"/>
        <lane id="-gneE6_1" index="1" speed="13.89" length="85.71" shape="29.22,20.37 100.91,67.33"/>
    </edge>
    <edge id="gneE0" from="gneJ0" to="gneJ1" priority="-1">
        <lane id="gneE0_0" index="0" speed="13.89" length="94.04" shape="95.85,87.41 1.81,87.18"/>
        <lane id="gneE0_1" index="1" speed="13.89" length="94.04" shape="95.86,84.21 1.82,83.98"/>
    </edge>
    <edge id="gneE1" from="gneJ1" to="gneJ2" priority="-1">
        <lane id="gneE1_0" index="0" speed="13.89" length="44.35" shape="-7.19,82.60 -33.43,46.85"/>
        <lane id="gneE1_1" index="1" speed="13.89" length="44.35" shape="-4.61,80.71 -30.85,44.95"/>
    </edge>
    <edge id="gneE2" from="gneJ2" to="gneJ3" priority="-1">
        <lane id="gneE2_0" index="0" speed="13.89" length="36.22" shape="-31.23,31.34 -2.52,9.26"/>
        <lane id="gneE2_1" index="1" speed="13.89" length="36.22" shape="-29.28,33.88 -0.57,11.80"/>
    </edge>
    <edge id="gneE3" from="gneJ3" to="gneJ4" priority="-1">
        <lane id="gneE3_0" index="0" speed="13.89" length="43.62" shape="32.45,2.95 76.07,2.76"/>
        <lane id="gneE3_1" index="1" speed="13.89" length="43.62" shape="32.47,6.15 76.09,5.96"/>
    </edge>
    <edge id="gneE4" from="gneJ4" to="gneJ5" priority="-1">
        <lane id="gneE4_0" index="0" speed="13.89" length="58.57" shape="80.94,3.85 133.80,29.09"/>
        <lane id="gneE4_1" index="1" speed="13.89" length="58.57" shape="79.57,6.74 132.42,31.98"/>
    </edge>
    <edge id="gneE5" from="gneJ5" to="gneJ0" priority="-1">
        <lane id="gneE5_0" index="0" speed="13.89" length="31.31" shape="139.61,42.70 129.83,72.44"/>
        <lane id="gneE5_1" index="1" speed="13.89" length="31.31" shape="136.57,41.70 126.79,71.44"/>
    </edge>
    <edge id="gneE6" from="gneJ0" to="gneJ3" priority="-1">
        <lane id="gneE6_0" index="0" speed="13.89" length="85.71" shape="97.41,72.68 25.71,25.72"/>
        <lane id="gneE6_1" index="1" speed="13.89" length="85.71" shape="99.16,70.01 27.46,23.05"/>
    </edge>

    <tlLogic id="gneJ0" type="static" programID="0" offset="0">
        <phase duration="38" state="GGgrrGGG"/>
        <phase duration="3"  state="yygrryyy"/>
        <phase duration="6"  state="GGGrrrrr"/>
        <phase duration="3"  state="yyyrrrrr"/>
        <phase duration="37" state="rrrGGGrr"/>
        <phase duration="3"  state="rrryyyrr"/>
    </tlLogic>
    <tlLogic id="gneJ3" type="static" programID="0" offset="0">
        <phase duration="42" state="rrGGGGGg"/>
        <phase duration="3"  state="rryyyyyy"/>
        <phase duration="42" state="GGGrrrrr"/>
        <phase duration="3"  state="yyyrrrrr"/>
    </tlLogic>

    <junction id="gneJ0" type="traffic_light" x="121.41" y="82.67" incLanes="gneE5_0 gneE5_1 -gneE6_0 -gneE6_1 -gneE0_0 -gneE0_1" intLanes=":gneJ0_0_0 :gneJ0_1_0 :gneJ0_8_0 :gneJ0_3_0 :gneJ0_4_0 :gneJ0_5_0 :gneJ0_6_0 :gneJ0_7_0" shape="131.34,72.94 119.19,68.94 116.89,70.01 114.65,69.44 111.68,68.13 107.98,66.09 103.54,63.32 96.53,74.02 95.88,76.21 95.85,89.01 105.22,88.58 113.21,87.25 119.82,85.03 125.04,81.90 128.88,77.87">
        <request index="0" response="00000000" foes="00010000" cont="0"/>
        <request index="1" response="00000000" foes="00010000" cont="0"/>
        <request index="2" response="11000000" foes="11010000" cont="1"/>
        <request index="3" response="11000000" foes="11000000" cont="0"/>
        <request index="4" response="11000111" foes="11000111" cont="0"/>
        <request index="5" response="00000000" foes="00000000" cont="0"/>
        <request index="6" response="00000000" foes="00011100" cont="0"/>
        <request index="7" response="00000000" foes="00011100" cont="0"/>
    </junction>
    <junction id="gneJ1" type="priority" x="-1.41" y="82.37" incLanes="gneE0_0 gneE0_1 -gneE1_0 -gneE1_1" intLanes=":gneJ1_0_0 :gneJ1_1_0 :gneJ1_2_0 :gneJ1_3_0" shape="1.81,88.78 1.84,75.98 -8.48,83.55 -7.13,85.14 -5.64,86.45 -4.00,87.46 -2.21,88.19 -0.27,88.63">
        <request index="0" response="0000" foes="0000" cont="0"/>
        <request index="1" response="0000" foes="0000" cont="0"/>
        <request index="2" response="0000" foes="0000" cont="0"/>
        <request index="3" response="0000" foes="0000" cont="0"/>
    </junction>
    <junction id="gneJ2" type="priority" x="-33.26" y="38.96" incLanes="gneE1_0 gneE1_1 -gneE2_0 -gneE2_1" intLanes=":gneJ2_0_0 :gneJ2_1_0 :gneJ2_2_0 :gneJ2_3_0" shape="-34.72,47.79 -24.40,40.22 -32.20,30.08 -35.03,32.69 -36.89,35.43 -37.79,38.32 -37.73,41.34 -36.70,44.50">
        <request index="0" response="0000" foes="0000" cont="0"/>
        <request index="1" response="0000" foes="0000" cont="0"/>
        <request index="2" response="0000" foes="0000" cont="0"/>
        <request index="3" response="0000" foes="0000" cont="0"/>
    </junction>
    <junction id="gneJ3" type="traffic_light" x="7.19" y="7.85" incLanes="gneE6_0 gneE6_1 -gneE3_0 -gneE3_1 gneE2_0 gneE2_1" intLanes=":gneJ3_0_0 :gneJ3_1_0 :gneJ3_2_0 :gneJ3_3_0 :gneJ3_3_1 :gneJ3_5_0 :gneJ3_5_1 :gneJ3_8_0" shape="24.83,27.06 31.85,16.35 32.50,14.15 32.45,1.35 24.44,1.09 18.23,0.63 13.06,0.52 8.20,1.33 2.93,3.64 -3.49,7.99 4.31,18.14 8.00,18.04 11.03,19.15 14.84,21.02 19.44,23.66">
        <request index="0" response="00011000" foes="00011000" cont="0"/>
        <request index="1" response="11111000" foes="11111000" cont="0"/>
        <request index="2" response="00000000" foes="00000000" cont="0"/>
        <request index="3" response="00000000" foes="10000011" cont="0"/>
        <request index="4" response="00000000" foes="10000011" cont="0"/>
        <request index="5" response="00000000" foes="00000010" cont="0"/>
        <request index="6" response="00000000" foes="00000010" cont="0"/>
        <request index="7" response="00011000" foes="00011010" cont="1"/>
    </junction>
    <junction id="gneJ4" type="priority" x="77.56" y="7.56" incLanes="-gneE4_0 -gneE4_1 gneE3_0 gneE3_1" intLanes=":gneJ4_0_0 :gneJ4_0_1 :gneJ4_2_0 :gneJ4_2_1" shape="76.12,13.96 81.63,2.41 79.68,1.54 78.95,1.32 78.20,1.21 77.29,1.16 76.06,1.16">
        <request index="0" response="0000" foes="0000" cont="0"/>
        <request index="1" response="0000" foes="0000" cont="0"/>
        <request index="2" response="0000" foes="0000" cont="0"/>
        <request index="3" response="0000" foes="0000" cont="0"/>
    </junction>
    <junction id="gneJ5" type="priority" x="136.81" y="35.85" incLanes="gneE4_0 gneE4_1 -gneE5_0 -gneE5_1" intLanes=":gneJ5_0_0 :gneJ5_1_0 :gneJ5_2_0 :gneJ5_3_0" shape="134.49,27.65 128.98,39.20 141.13,43.20 141.93,39.80 141.96,36.72 141.23,33.96 139.75,31.53 137.50,29.43">
        <request index="0" response="0000" foes="0000" cont="0"/>
        <request index="1" response="0000" foes="0000" cont="0"/>
        <request index="2" response="0000" foes="0000" cont="0"/>
        <request index="3" response="0000" foes="0000" cont="0"/>
    </junction>

    <junction id=":gneJ0_8_0" type="internal" x="119.35" y="77.72" incLanes=":gneJ0_2_0 -gneE0_0 -gneE0_1" intLanes=":gneJ0_4_0 :gneJ0_6_0 :gneJ0_7_0"/>
    <junction id=":gneJ3_8_0" type="internal" x="5.87" y="10.34" incLanes=":gneJ3_7_0 -gneE3_0 -gneE3_1" intLanes=":gneJ3_1_0 :gneJ3_3_0 :gneJ3_3_1"/>

    <connection from="-gneE0" to="gneE6" fromLane="0" toLane="0" via=":gneJ0_5_0" tl="gneJ0" linkIndex="5" dir="r" state="O"/>
    <connection from="-gneE0" to="-gneE5" fromLane="0" toLane="0" via=":gneJ0_6_0" tl="gneJ0" linkIndex="6" dir="R" state="O"/>
    <connection from="-gneE0" to="-gneE5" fromLane="1" toLane="1" via=":gneJ0_7_0" tl="gneJ0" linkIndex="7" dir="R" state="O"/>
    <connection from="-gneE1" to="-gneE0" fromLane="0" toLane="0" via=":gneJ1_2_0" dir="r" state="M"/>
    <connection from="-gneE1" to="-gneE0" fromLane="1" toLane="1" via=":gneJ1_3_0" dir="r" state="M"/>
    <connection from="-gneE2" to="-gneE1" fromLane="0" toLane="0" via=":gneJ2_2_0" dir="r" state="M"/>
    <connection from="-gneE2" to="-gneE1" fromLane="1" toLane="1" via=":gneJ2_3_0" dir="r" state="M"/>
    <connection from="-gneE3" to="-gneE6" fromLane="0" toLane="0" via=":gneJ3_2_0" tl="gneJ3" linkIndex="2" dir="r" state="O"/>
    <connection from="-gneE3" to="-gneE2" fromLane="0" toLane="0" via=":gneJ3_3_0" tl="gneJ3" linkIndex="3" dir="s" state="O"/>
    <connection from="-gneE3" to="-gneE2" fromLane="1" toLane="1" via=":gneJ3_3_1" tl="gneJ3" linkIndex="4" dir="s" state="O"/>
    <connection from="-gneE4" to="-gneE3" fromLane="0" toLane="0" via=":gneJ4_0_0" dir="s" state="M"/>
    <connection from="-gneE4" to="-gneE3" fromLane="1" toLane="1" via=":gneJ4_0_1" dir="s" state="M"/>
    <connection from="-gneE5" to="-gneE4" fromLane="0" toLane="0" via=":gneJ5_2_0" dir="r" state="M"/>
    <connection from="-gneE5" to="-gneE4" fromLane="1" toLane="1" via=":gneJ5_3_0" dir="r" state="M"/>
    <connection from="-gneE6" to="-gneE5" fromLane="0" toLane="0" via=":gneJ0_3_0" tl="gneJ0" linkIndex="3" dir="r" state="o"/>
    <connection from="-gneE6" to="gneE0" fromLane="1" toLane="1" via=":gneJ0_4_0" tl="gneJ0" linkIndex="4" dir="l" state="o"/>
    <connection from="gneE0" to="gneE1" fromLane="0" toLane="0" via=":gneJ1_0_0" dir="l" state="M"/>
    <connection from="gneE0" to="gneE1" fromLane="1" toLane="1" via=":gneJ1_1_0" dir="l" state="M"/>
    <connection from="gneE1" to="gneE2" fromLane="0" toLane="0" via=":gneJ2_0_0" dir="l" state="M"/>
    <connection from="gneE1" to="gneE2" fromLane="1" toLane="1" via=":gneJ2_1_0" dir="l" state="M"/>
    <connection from="gneE2" to="gneE3" fromLane="0" toLane="0" via=":gneJ3_5_0" tl="gneJ3" linkIndex="5" dir="s" state="O"/>
    <connection from="gneE2" to="gneE3" fromLane="1" toLane="1" via=":gneJ3_5_1" tl="gneJ3" linkIndex="6" dir="s" state="O"/>
    <connection from="gneE2" to="-gneE6" fromLane="1" toLane="1" via=":gneJ3_7_0" tl="gneJ3" linkIndex="7" dir="l" state="o"/>
    <connection from="gneE3" to="gneE4" fromLane="0" toLane="0" via=":gneJ4_2_0" dir="s" state="M"/>
    <connection from="gneE3" to="gneE4" fromLane="1" toLane="1" via=":gneJ4_2_1" dir="s" state="M"/>
    <connection from="gneE4" to="gneE5" fromLane="0" toLane="0" via=":gneJ5_0_0" dir="l" state="M"/>
    <connection from="gneE4" to="gneE5" fromLane="1" toLane="1" via=":gneJ5_1_0" dir="l" state="M"/>
    <connection from="gneE5" to="gneE0" fromLane="0" toLane="0" via=":gneJ0_0_0" tl="gneJ0" linkIndex="0" dir="L" state="O"/>
    <connection from="gneE5" to="gneE0" fromLane="1" toLane="1" via=":gneJ0_1_0" tl="gneJ0" linkIndex="1" dir="L" state="O"/>
    <connection from="gneE5" to="gneE6" fromLane="1" toLane="1" via=":gneJ0_2_0" tl="gneJ0" linkIndex="2" dir="l" state="o"/>
    <connection from="gneE6" to="-gneE2" fromLane="0" toLane="0" via=":gneJ3_0_0" tl="gneJ3" linkIndex="0" dir="r" state="o"/>
    <connection from="gneE6" to="gneE3" fromLane="1" toLane="1" via=":gneJ3_1_0" tl="gneJ3" linkIndex="1" dir="l" state="o"/>

    <connection from=":gneJ0_0" to="gneE0" fromLane="0" toLane="0" dir="L" state="M"/>
    <connection from=":gneJ0_1" to="gneE0" fromLane="0" toLane="1" dir="L" state="M"/>
    <connection from=":gneJ0_2" to="gneE6" fromLane="0" toLane="1" via=":gneJ0_8_0" dir="l" state="m"/>
    <connection from=":gneJ0_8" to="gneE6" fromLane="0" toLane="1" dir="l" state="M"/>
    <connection from=":gneJ0_3" to="-gneE5" fromLane="0" toLane="0" dir="r" state="M"/>
    <connection from=":gneJ0_4" to="gneE0" fromLane="0" toLane="1" dir="l" state="M"/>
    <connection from=":gneJ0_5" to="gneE6" fromLane="0" toLane="0" dir="r" state="M"/>
    <connection from=":gneJ0_6" to="-gneE5" fromLane="0" toLane="0" dir="R" state="M"/>
    <connection from=":gneJ0_7" to="-gneE5" fromLane="0" toLane="1" dir="R" state="M"/>
    <connection from=":gneJ1_0" to="gneE1" fromLane="0" toLane="0" dir="l" state="M"/>
    <connection from=":gneJ1_1" to="gneE1" fromLane="0" toLane="1" dir="l" state="M"/>
    <connection from=":gneJ1_2" to="-gneE0" fromLane="0" toLane="0" dir="r" state="M"/>
    <connection from=":gneJ1_3" to="-gneE0" fromLane="0" toLane="1" dir="r" state="M"/>
    <connection from=":gneJ2_0" to="gneE2" fromLane="0" toLane="0" dir="l" state="M"/>
    <connection from=":gneJ2_1" to="gneE2" fromLane="0" toLane="1" dir="l" state="M"/>
    <connection from=":gneJ2_2" to="-gneE1" fromLane="0" toLane="0" dir="r" state="M"/>
    <connection from=":gneJ2_3" to="-gneE1" fromLane="0" toLane="1" dir="r" state="M"/>
    <connection from=":gneJ3_0" to="-gneE2" fromLane="0" toLane="0" dir="r" state="M"/>
    <connection from=":gneJ3_1" to="gneE3" fromLane="0" toLane="1" dir="l" state="M"/>
    <connection from=":gneJ3_2" to="-gneE6" fromLane="0" toLane="0" dir="r" state="M"/>
    <connection from=":gneJ3_3" to="-gneE2" fromLane="0" toLane="0" dir="s" state="M"/>
    <connection from=":gneJ3_3" to="-gneE2" fromLane="1" toLane="1" dir="s" state="M"/>
    <connection from=":gneJ3_5" to="gneE3" fromLane="0" toLane="0" dir="s" state="M"/>
    <connection from=":gneJ3_5" to="gneE3" fromLane="1" toLane="1" dir="s" state="M"/>
    <connection from=":gneJ3_7" to="-gneE6" fromLane="0" toLane="1" via=":gneJ3_8_0" dir="l" state="m"/>
    <connection from=":gneJ3_8" to="-gneE6" fromLane="0" toLane="1" dir="l" state="M"/>
    <connection from=":gneJ4_0" to="-gneE3" fromLane="0" toLane="0" dir="s" state="M"/>
    <connection from=":gneJ4_0" to="-gneE3" fromLane="1" toLane="1" dir="s" state="M"/>
    <connection from=":gneJ4_2" to="gneE4" fromLane="0" toLane="0" dir="s" state="M"/>
    <connection from=":gneJ4_2" to="gneE4" fromLane="1" toLane="1" dir="s" state="M"/>
    <connection from=":gneJ5_0" to="gneE5" fromLane="0" toLane="0" dir="l" state="M"/>
    <connection from=":gneJ5_1" to="gneE5" fromLane="0" toLane="1" dir="l" state="M"/>
    <connection from=":gneJ5_2" to="-gneE4" fromLane="0" toLane="0" dir="r" state="M"/>
    <connection from=":gneJ5_3" to="-gneE4" fromLane="0" toLane="1" dir="r" state="M"/>

</net>
